C17H15ClFN
APtclcactv12272117193D 0   0.00000     0.00000     1
 
 35 37  0  0  0  0  0  0  0  0999 V2000
   -4.1438    2.7711    0.0386 Cl  0  0  0  0  0  0  0  0  0  0  0  0
   -2.6586    1.8726    0.0667 C   0  0  0  0  0  0  0  0  0  0  0  0
   -1.4460    2.5379   -0.0657 C   0  0  0  0  0  0  0  0  0  0  0  0
   -0.2575    1.8421   -0.0458 C   0  0  0  0  0  0  0  0  0  0  0  0
   -0.2648    0.4601    0.1085 C   0  0  0  0  0  0  0  0  0  0  0  0
    0.7311   -0.4927    0.1660 N   0  0  0  0  0  0  0  0  0  0  0  0
    0.1768   -1.7345    0.3309 C   0  0  0  0  0  0  0  0  0  0  0  0
   -1.1609   -1.6348    0.3849 C   0  0  0  0  0  0  0  0  0  0  0  0
   -2.1376   -2.7692    0.5590 C   0  0  0  0  0  0  0  0  0  0  0  0
   -2.6336   -3.2301   -0.8130 C   0  0  0  0  0  0  0  0  0  0  0  0
   -3.6252   -4.3819   -0.6363 C   0  0  0  0  0  0  0  0  0  0  0  0
   -1.4918   -0.2145    0.2432 C   0  0  0  0  0  0  0  0  0  0  0  0
   -2.6884    0.5050    0.2259 C   0  0  0  0  0  0  0  0  0  0  0  0
    2.1043   -0.2297    0.0695 C   0  0  0  0  0  0  0  0  0  0  0  0
    2.9799   -0.7514    1.0123 C   0  0  0  0  0  0  0  0  0  0  0  0
    4.3329   -0.4915    0.9152 C   0  0  0  0  0  0  0  0  0  0  0  0
    4.8162    0.2893   -0.1213 C   0  0  0  0  0  0  0  0  0  0  0  0
    6.1400    0.5428   -0.2143 F   0  0  0  0  0  0  0  0  0  0  0  0
    3.9446    0.8102   -1.0628 C   0  0  0  0  0  0  0  0  0  0  0  0
    2.5916    0.5482   -0.9722 C   0  0  0  0  0  0  0  0  0  0  0  0
   -1.4353    3.6111   -0.1859 H   0  0  0  0  0  0  0  0  0  0  0  0
    0.6793    2.3694   -0.1504 H   0  0  0  0  0  0  0  0  0  0  0  0
    0.7334   -2.6570    0.4064 H   0  0  0  0  0  0  0  0  0  0  0  0
   -1.6441   -3.5992    1.0646 H   0  0  0  0  0  0  0  0  0  0  0  0
   -2.9842   -2.4313    1.1567 H   0  0  0  0  0  0  0  0  0  0  0  0
   -3.1271   -2.4002   -1.3187 H   0  0  0  0  0  0  0  0  0  0  0  0
   -1.7870   -3.5681   -1.4107 H   0  0  0  0  0  0  0  0  0  0  0  0
   -3.9785   -4.7103   -1.6138 H   0  0  0  0  0  0  0  0  0  0  0  0
   -3.1317   -5.2118   -0.1307 H   0  0  0  0  0  0  0  0  0  0  0  0
   -4.4718   -4.0439   -0.0387 H   0  0  0  0  0  0  0  0  0  0  0  0
   -3.6324   -0.0086    0.3335 H   0  0  0  0  0  0  0  0  0  0  0  0
    2.6033   -1.3598    1.8212 H   0  0  0  0  0  0  0  0  0  0  0  0
    5.0143   -0.8971    1.6484 H   0  0  0  0  0  0  0  0  0  0  0  0
    4.3235    1.4189   -1.8705 H   0  0  0  0  0  0  0  0  0  0  0  0
    1.9121    0.9546   -1.7068 H   0  0  0  0  0  0  0  0  0  0  0  0
  1  2  1  0  0  0  0
  2  3  1  0  0  0  0
  3  4  2  0  0  0  0
  4  5  1  0  0  0  0
  5  6  1  0  0  0  0
  6  7  1  0  0  0  0
  7  8  2  0  0  0  0
  8  9  1  0  0  0  0
  9 10  1  0  0  0  0
 10 11  1  0  0  0  0
  8 12  1  0  0  0  0
  5 12  2  0  0  0  0
 12 13  1  0  0  0  0
  2 13  2  0  0  0  0
  6 14  1  0  0  0  0
 14 15  1  0  0  0  0
 15 16  2  0  0  0  0
 16 17  1  0  0  0  0
 17 18  1  0  0  0  0
 17 19  2  0  0  0  0
 19 20  1  0  0  0  0
 14 20  2  0  0  0  0
  3 21  1  0  0  0  0
  4 22  1  0  0  0  0
  7 23  1  0  0  0  0
  9 24  1  0  0  0  0
  9 25  1  0  0  0  0
 10 26  1  0  0  0  0
 10 27  1  0  0  0  0
 11 28  1  0  0  0  0
 11 29  1  0  0  0  0
 11 30  1  0  0  0  0
 13 31  1  0  0  0  0
 15 32  1  0  0  0  0
 16 33  1  0  0  0  0
 19 34  1  0  0  0  0
 20 35  1  0  0  0  0
M  END
> <UNIQUE_SMILES>
CCCC1=C[N](C2=CC=C(F)C=C2)C3=C1C=C(Cl)C=C3

> <USER_SUPPLIED_SMILES>
Clc2ccc1n(cc(CCC)c1c2)c3ccc(F)cc3

$$$$
C18H20FN3O4
APtclcactv12272117193D 0   0.00000     0.00000     2
 
 46 49  0  0  0  0  0  0  0  0999 V2000
   -2.1420   -2.3292   -0.2249 F   0  0  0  0  0  0  0  0  0  0  0  0
   -1.1271   -1.4443   -0.1150 C   0  0  0  0  0  0  0  0  0  0  0  0
   -1.4048   -0.0851    0.0276 C   0  0  0  0  0  0  0  0  0  0  0  0
   -2.7314    0.3487    0.0636 N   0  0  0  0  0  0  0  0  0  0  0  0
   -3.3659   -0.3281    1.2014 C   0  0  0  0  0  0  0  0  0  0  0  0
   -4.8580    0.0052    1.2312 C   0  0  0  0  0  0  0  0  0  0  0  0
   -5.5028   -0.5080    0.0163 N   0  0  0  0  0  0  0  0  0  0  0  0
   -4.8683    0.1688   -1.1215 C   0  0  0  0  0  0  0  0  0  0  0  0
   -3.3763   -0.1645   -1.1513 C   0  0  0  0  0  0  0  0  0  0  0  0
   -6.8986   -0.0516    0.0541 C   0  0  0  0  0  0  0  0  0  0  0  0
   -0.3736    0.8434    0.1349 C   0  0  0  0  0  0  0  0  0  0  0  0
   -0.6828    2.1563    0.2882 O   0  0  0  0  0  0  0  0  0  0  0  0
    0.2861    2.9407   -0.4014 C   0  0  0  0  0  0  0  0  0  0  0  0
    1.6579    2.7441    0.2538 C   0  0  0  0  0  0  0  0  0  0  0  0
    1.9909    1.3118    0.1742 N   0  0  0  0  0  0  0  0  0  0  0  0
    0.9475    0.4053    0.0919 C   0  0  0  0  0  0  0  0  0  0  0  0
    1.2147   -0.9692   -0.0361 C   0  0  0  0  0  0  0  0  0  0  0  0
    0.1655   -1.8869   -0.1386 C   0  0  0  0  0  0  0  0  0  0  0  0
    2.6162   -1.4210   -0.0499 C   0  0  0  0  0  0  0  0  0  0  0  0
    2.9019   -2.6009   -0.1599 O   0  0  0  0  0  0  0  0  0  0  0  0
    3.6575   -0.3881    0.0741 C   0  0  0  0  0  0  0  0  0  0  0  0
    3.2757    0.9330    0.1817 C   0  0  0  0  0  0  0  0  0  0  0  0
    5.0794   -0.7582    0.0853 C   0  0  0  0  0  0  0  0  0  0  0  0
    5.4397   -2.0531   -0.0187 O   0  0  0  0  0  0  0  0  0  0  0  0
    5.9309    0.1034    0.1882 O   0  0  0  0  0  0  0  0  0  0  0  0
    2.7118    3.5639   -0.4933 C   0  0  0  0  0  0  0  0  0  0  0  0
   -3.2369   -1.4057    1.1004 H   0  0  0  0  0  0  0  0  0  0  0  0
   -2.9007    0.0071    2.1284 H   0  0  0  0  0  0  0  0  0  0  0  0
   -5.3152   -0.4554    2.1069 H   0  0  0  0  0  0  0  0  0  0  0  0
   -4.9872    1.0864    1.2814 H   0  0  0  0  0  0  0  0  0  0  0  0
   -5.3335   -0.1664   -2.0485 H   0  0  0  0  0  0  0  0  0  0  0  0
   -4.9974    1.2464   -1.0205 H   0  0  0  0  0  0  0  0  0  0  0  0
   -2.9190    0.2961   -2.0270 H   0  0  0  0  0  0  0  0  0  0  0  0
   -3.2470   -1.2457   -1.2015 H   0  0  0  0  0  0  0  0  0  0  0  0
   -6.9241    1.0379    0.0759 H   0  0  0  0  0  0  0  0  0  0  0  0
   -7.4221   -0.4096   -0.8323 H   0  0  0  0  0  0  0  0  0  0  0  0
   -7.3852   -0.4443    0.9469 H   0  0  0  0  0  0  0  0  0  0  0  0
    0.3327    2.6269   -1.4442 H   0  0  0  0  0  0  0  0  0  0  0  0
    0.0058    3.9928   -0.3500 H   0  0  0  0  0  0  0  0  0  0  0  0
    1.6171    3.0565    1.2973 H   0  0  0  0  0  0  0  0  0  0  0  0
    0.3757   -2.9409   -0.2445 H   0  0  0  0  0  0  0  0  0  0  0  0
    4.0407    1.6898    0.2735 H   0  0  0  0  0  0  0  0  0  0  0  0
    6.3755   -2.2966   -0.0114 H   0  0  0  0  0  0  0  0  0  0  0  0
    2.4434    4.6197   -0.4574 H   0  0  0  0  0  0  0  0  0  0  0  0
    3.6845    3.4201   -0.0229 H   0  0  0  0  0  0  0  0  0  0  0  0
    2.7582    3.2359   -1.5317 H   0  0  0  0  0  0  0  0  0  0  0  0
  1  2  1  0  0  0  0
  2  3  1  0  0  0  0
  3  4  1  0  0  0  0
  4  5  1  0  0  0  0
  5  6  1  0  0  0  0
  6  7  1  0  0  0  0
  7  8  1  0  0  0  0
  8  9  1  0  0  0  0
  4  9  1  0  0  0  0
  7 10  1  0  0  0  0
  3 11  2  0  0  0  0
 11 12  1  0  0  0  0
 12 13  1  0  0  0  0
 13 14  1  0  0  0  0
 14 15  1  0  0  0  0
 15 16  1  0  0  0  0
 11 16  1  0  0  0  0
 16 17  2  0  0  0  0
 17 18  1  0  0  0  0
  2 18  2  0  0  0  0
 17 19  1  0  0  0  0
 19 20  2  0  0  0  0
 19 21  1  0  0  0  0
 21 22  2  0  0  0  0
 15 22  1  0  0  0  0
 21 23  1  0  0  0  0
 23 24  1  0  0  0  0
 23 25  2  0  0  0  0
 14 26  1  0  0  0  0
  5 27  1  0  0  0  0
  5 28  1  0  0  0  0
  6 29  1  0  0  0  0
  6 30  1  0  0  0  0
  8 31  1  0  0  0  0
  8 32  1  0  0  0  0
  9 33  1  0  0  0  0
  9 34  1  0  0  0  0
 10 35  1  0  0  0  0
 10 36  1  0  0  0  0
 10 37  1  0  0  0  0
 13 38  1  0  0  0  0
 13 39  1  0  0  0  0
 14 40  1  0  0  0  0
 18 41  1  0  0  0  0
 22 42  1  0  0  0  0
 24 43  1  0  0  0  0
 26 44  1  0  0  0  0
 26 45  1  0  0  0  0
 26 46  1  0  0  0  0
M  END
> <UNIQUE_SMILES>
CC1COC2=C(N3CCN(C)CC3)C(=CC4=C2N1C=C(C(O)=O)C4=O)F

> <USER_SUPPLIED_SMILES>
Fc3c(N1CCN(CC1)C)c2OCC(N\4c2c(c3)C(=O)/C(=C/4)C(O)=O)C

$$$$
C16H13ClFNO
APtclcactv12272117193D 0   0.00000     0.00000     3
 
 33 35  0  0  0  0  0  0  0  0999 V2000
   -4.4372    2.4401    0.0904 Cl  0  0  0  0  0  0  0  0  0  0  0  0
   -2.8883    1.6571    0.0492 C   0  0  0  0  0  0  0  0  0  0  0  0
   -1.7276    2.4176    0.1190 C   0  0  0  0  0  0  0  0  0  0  0  0
   -0.4897    1.8143    0.0877 C   0  0  0  0  0  0  0  0  0  0  0  0
   -0.3944    0.4306   -0.0142 C   0  0  0  0  0  0  0  0  0  0  0  0
    0.6702   -0.4449   -0.0681 N   0  0  0  0  0  0  0  0  0  0  0  0
    0.2093   -1.7309   -0.1691 C   0  0  0  0  0  0  0  0  0  0  0  0
   -1.1331   -1.7358   -0.1840 C   0  0  0  0  0  0  0  0  0  0  0  0
   -1.5688   -0.3404   -0.0845 C   0  0  0  0  0  0  0  0  0  0  0  0
   -2.8167    0.2851   -0.0468 C   0  0  0  0  0  0  0  0  0  0  0  0
   -2.0236   -2.9474   -0.2846 C   0  0  0  0  0  0  0  0  0  0  0  0
   -1.3137   -4.0082   -0.9271 O   0  0  0  0  0  0  0  0  0  0  0  0
   -2.4424   -3.3904    1.1187 C   0  0  0  0  0  0  0  0  0  0  0  0
    2.0212   -0.0741   -0.0262 C   0  0  0  0  0  0  0  0  0  0  0  0
    2.8870   -0.7014    0.8596 C   0  0  0  0  0  0  0  0  0  0  0  0
    4.2180   -0.3350    0.8990 C   0  0  0  0  0  0  0  0  0  0  0  0
    4.6891    0.6576    0.0562 C   0  0  0  0  0  0  0  0  0  0  0  0
    5.9914    1.0150    0.0966 F   0  0  0  0  0  0  0  0  0  0  0  0
    3.8273    1.2841   -0.8283 C   0  0  0  0  0  0  0  0  0  0  0  0
    2.4967    0.9169   -0.8744 C   0  0  0  0  0  0  0  0  0  0  0  0
   -1.7966    3.4924    0.1982 H   0  0  0  0  0  0  0  0  0  0  0  0
    0.4060    2.4153    0.1420 H   0  0  0  0  0  0  0  0  0  0  0  0
    0.8332   -2.6104   -0.2281 H   0  0  0  0  0  0  0  0  0  0  0  0
   -3.7208   -0.3036   -0.0960 H   0  0  0  0  0  0  0  0  0  0  0  0
   -2.9108   -2.6989   -0.8671 H   0  0  0  0  0  0  0  0  0  0  0  0
   -1.9177   -4.7621   -0.9711 H   0  0  0  0  0  0  0  0  0  0  0  0
   -1.5552   -3.6389    1.7011 H   0  0  0  0  0  0  0  0  0  0  0  0
   -2.9838   -2.5813    1.6087 H   0  0  0  0  0  0  0  0  0  0  0  0
   -3.0864   -4.2668    1.0459 H   0  0  0  0  0  0  0  0  0  0  0  0
    2.5198   -1.4751    1.5176 H   0  0  0  0  0  0  0  0  0  0  0  0
    4.8918   -0.8227    1.5879 H   0  0  0  0  0  0  0  0  0  0  0  0
    4.1966    2.0581   -1.4848 H   0  0  0  0  0  0  0  0  0  0  0  0
    1.8248    1.4057   -1.5644 H   0  0  0  0  0  0  0  0  0  0  0  0
  1  2  1  0  0  0  0
  2  3  1  0  0  0  0
  3  4  2  0  0  0  0
  4  5  1  0  0  0  0
  5  6  1  0  0  0  0
  6  7  1  0  0  0  0
  7  8  2  0  0  0  0
  8  9  1  0  0  0  0
  5  9  2  0  0  0  0
  9 10  1  0  0  0  0
  2 10  2  0  0  0  0
  8 11  1  0  0  0  0
 11 12  1  0  0  0  0
 11 13  1  0  0  0  0
  6 14  1  0  0  0  0
 14 15  1  0  0  0  0
 15 16  2  0  0  0  0
 16 17  1  0  0  0  0
 17 18  1  0  0  0  0
 17 19  2  0  0  0  0
 19 20  1  0  0  0  0
 14 20  2  0  0  0  0
  3 21  1  0  0  0  0
  4 22  1  0  0  0  0
  7 23  1  0  0  0  0
 10 24  1  0  0  0  0
 11 25  1  0  0  0  0
 12 26  1  0  0  0  0
 13 27  1  0  0  0  0
 13 28  1  0  0  0  0
 13 29  1  0  0  0  0
 15 30  1  0  0  0  0
 16 31  1  0  0  0  0
 19 32  1  0  0  0  0
 20 33  1  0  0  0  0
M  END
> <UNIQUE_SMILES>
CC(O)C1=C[N](C2=CC=C(F)C=C2)C3=C1C=C(Cl)C=C3

> <USER_SUPPLIED_SMILES>
Clc2ccc1n(cc(c1c2)C(O)C)c3ccc(F)cc3

$$$$
C17H15ClFNO
APtclcactv12272117193D 0   0.00000     0.00000     4
 
 36 38  0  0  0  0  0  0  0  0999 V2000
   -3.8974    3.1850    0.1128 Cl  0  0  0  0  0  0  0  0  0  0  0  0
   -2.4632    2.2085    0.0546 C   0  0  0  0  0  0  0  0  0  0  0  0
   -1.2149    2.8062    0.1769 C   0  0  0  0  0  0  0  0  0  0  0  0
   -0.0659    2.0480    0.1331 C   0  0  0  0  0  0  0  0  0  0  0  0
   -0.1496    0.6700   -0.0345 C   0  0  0  0  0  0  0  0  0  0  0  0
    0.7927   -0.3341   -0.1164 N   0  0  0  0  0  0  0  0  0  0  0  0
    0.1702   -1.5425   -0.2859 C   0  0  0  0  0  0  0  0  0  0  0  0
   -1.1608   -1.3707   -0.3192 C   0  0  0  0  0  0  0  0  0  0  0  0
   -1.4128    0.0637   -0.1580 C   0  0  0  0  0  0  0  0  0  0  0  0
   -2.5691    0.8449   -0.1069 C   0  0  0  0  0  0  0  0  0  0  0  0
   -2.1994   -2.4491   -0.4904 C   0  0  0  0  0  0  0  0  0  0  0  0
   -1.6213   -3.5630   -1.1739 O   0  0  0  0  0  0  0  0  0  0  0  0
   -2.6999   -2.8980    0.8839 C   0  0  0  0  0  0  0  0  0  0  0  0
   -3.8412   -3.9018    0.7082 C   0  0  0  0  0  0  0  0  0  0  0  0
    2.1794   -0.1460   -0.0383 C   0  0  0  0  0  0  0  0  0  0  0  0
    2.9384   -0.9217    0.8276 C   0  0  0  0  0  0  0  0  0  0  0  0
    4.3048   -0.7351    0.9028 C   0  0  0  0  0  0  0  0  0  0  0  0
    4.9178    0.2251    0.1155 C   0  0  0  0  0  0  0  0  0  0  0  0
    6.2544    0.4064    0.1908 F   0  0  0  0  0  0  0  0  0  0  0  0
    4.1625    0.9995   -0.7491 C   0  0  0  0  0  0  0  0  0  0  0  0
    2.7966    0.8124   -0.8310 C   0  0  0  0  0  0  0  0  0  0  0  0
   -1.1448    3.8760    0.3072 H   0  0  0  0  0  0  0  0  0  0  0  0
    0.8993    2.5232    0.2285 H   0  0  0  0  0  0  0  0  0  0  0  0
    0.6753   -2.4926   -0.3790 H   0  0  0  0  0  0  0  0  0  0  0  0
   -3.5411    0.3827   -0.1968 H   0  0  0  0  0  0  0  0  0  0  0  0
   -3.0350   -2.0598   -1.0721 H   0  0  0  0  0  0  0  0  0  0  0  0
   -0.8879   -3.8764   -0.6271 H   0  0  0  0  0  0  0  0  0  0  0  0
   -1.8836   -3.3683    1.4321 H   0  0  0  0  0  0  0  0  0  0  0  0
   -3.0599   -2.0324    1.4400 H   0  0  0  0  0  0  0  0  0  0  0  0
   -4.1978   -4.2216    1.6873 H   0  0  0  0  0  0  0  0  0  0  0  0
   -4.6575   -3.4315    0.1600 H   0  0  0  0  0  0  0  0  0  0  0  0
   -3.4813   -4.7674    0.1521 H   0  0  0  0  0  0  0  0  0  0  0  0
    2.4606   -1.6702    1.4423 H   0  0  0  0  0  0  0  0  0  0  0  0
    4.8956   -1.3383    1.5762 H   0  0  0  0  0  0  0  0  0  0  0  0
    4.6424    1.7479   -1.3623 H   0  0  0  0  0  0  0  0  0  0  0  0
    2.2079    1.4165   -1.5054 H   0  0  0  0  0  0  0  0  0  0  0  0
  1  2  1  0  0  0  0
  2  3  1  0  0  0  0
  3  4  2  0  0  0  0
  4  5  1  0  0  0  0
  5  6  1  0  0  0  0
  6  7  1  0  0  0  0
  7  8  2  0  0  0  0
  8  9  1  0  0  0  0
  5  9  2  0  0  0  0
  9 10  1  0  0  0  0
  2 10  2  0  0  0  0
  8 11  1  0  0  0  0
 11 12  1  0  0  0  0
 11 13  1  0  0  0  0
 13 14  1  0  0  0  0
  6 15  1  0  0  0  0
 15 16  1  0  0  0  0
 16 17  2  0  0  0  0
 17 18  1  0  0  0  0
 18 19  1  0  0  0  0
 18 20  2  0  0  0  0
 20 21  1  0  0  0  0
 15 21  2  0  0  0  0
  3 22  1  0  0  0  0
  4 23  1  0  0  0  0
  7 24  1  0  0  0  0
 10 25  1  0  0  0  0
 11 26  1  0  0  0  0
 12 27  1  0  0  0  0
 13 28  1  0  0  0  0
 13 29  1  0  0  0  0
 14 30  1  0  0  0  0
 14 31  1  0  0  0  0
 14 32  1  0  0  0  0
 16 33  1  0  0  0  0
 17 34  1  0  0  0  0
 20 35  1  0  0  0  0
 21 36  1  0  0  0  0
M  END
> <UNIQUE_SMILES>
CCC(O)C1=C[N](C2=CC=C(F)C=C2)C3=C1C=C(Cl)C=C3

> <USER_SUPPLIED_SMILES>
Clc2ccc1n(cc(c1c2)C(O)CC)c3ccc(F)cc3

$$$$
C38H69NO13
APtclcactv12272117193D 0   0.00000     0.00000     5
 
121123  0  0  0  0  0  0  0  0999 V2000
    1.1811   -1.7251   -1.5463 O   0  0  0  0  0  0  0  0  0  0  0  0
   -0.0867   -1.1064   -1.3186 C   0  0  0  0  0  0  0  0  0  0  0  0
   -0.2008    0.1543   -2.1780 C   0  0  0  0  0  0  0  0  0  0  0  0
    0.2012    1.3754   -1.3483 C   0  0  0  0  0  0  0  0  0  0  0  0
    1.4989    1.8183   -1.7505 O   0  0  0  0  0  0  0  0  0  0  0  0
    2.2205    2.1337   -0.5496 C   0  0  0  0  0  0  0  0  0  0  0  0
    2.5560    0.9241    0.1117 O   0  0  0  0  0  0  0  0  0  0  0  0
    3.1838    1.1754    1.3515 C   0  0  0  0  0  0  0  0  0  0  0  0
    4.4312    2.0353    1.2505 C   0  0  0  0  0  0  0  0  0  0  0  0
    5.5279    1.2217    0.8039 O   0  0  0  0  0  0  0  0  0  0  0  0
    4.2935    3.2353    0.3232 C   0  0  0  0  0  0  0  0  0  0  0  0
    5.6140    3.6460   -0.0851 O   0  0  0  0  0  0  0  0  0  0  0  0
    5.4536    4.8249   -0.8767 C   0  0  0  0  0  0  0  0  0  0  0  0
    3.4983    2.8807   -0.9312 C   0  0  0  0  0  0  0  0  0  0  0  0
    3.6412    4.4152    1.0478 C   0  0  0  0  0  0  0  0  0  0  0  0
    2.2007    1.7330    2.3789 C   0  0  0  0  0  0  0  0  0  0  0  0
   -0.8128    2.4994   -1.5705 C   0  0  0  0  0  0  0  0  0  0  0  0
   -1.7420    2.5786   -0.3866 C   0  0  0  0  0  0  0  0  0  0  0  0
   -3.0707    2.5402   -0.5727 O   0  0  0  0  0  0  0  0  0  0  0  0
   -3.9662    2.6144    0.5679 C   0  0  0  0  0  0  0  0  0  0  0  0
   -5.1247    1.6346    0.3711 C   0  0  0  0  0  0  0  0  0  0  0  0
   -5.2678    1.3392   -1.0197 O   0  0  0  0  0  0  0  0  0  0  0  0
   -4.8367    0.3434    1.1397 C   0  0  0  0  0  0  0  0  0  0  0  0
   -5.6662    0.2858    2.3019 O   0  0  0  0  0  0  0  0  0  0  0  0
   -5.1313   -0.8607    0.2428 C   0  0  0  0  0  0  0  0  0  0  0  0
   -4.1142   -1.9417    0.5031 C   0  0  0  0  0  0  0  0  0  0  0  0
   -3.8611   -2.2724    1.6366 O   0  0  0  0  0  0  0  0  0  0  0  0
   -3.4133   -2.6105   -0.6513 C   0  0  0  0  0  0  0  0  0  0  0  0
   -1.9011   -2.5713   -0.4217 C   0  0  0  0  0  0  0  0  0  0  0  0
   -1.2047   -2.0815   -1.6929 C   0  0  0  0  0  0  0  0  0  0  0  0
   -2.1538   -1.4190   -2.5310 O   0  0  0  0  0  0  0  0  0  0  0  0
   -2.6876   -0.3324   -1.7717 C   0  0  0  0  0  0  0  0  0  0  0  0
   -0.6100   -3.2762   -2.4412 C   0  0  0  0  0  0  0  0  0  0  0  0
   -3.8758   -4.0652   -0.7552 C   0  0  0  0  0  0  0  0  0  0  0  0
   -6.5323   -1.3941    0.5490 C   0  0  0  0  0  0  0  0  0  0  0  0
   -6.4180    2.2622    0.8949 C   0  0  0  0  0  0  0  0  0  0  0  0
   -3.2008    2.2501    1.8417 C   0  0  0  0  0  0  0  0  0  0  0  0
   -4.1504    2.3038    3.0402 C   0  0  0  0  0  0  0  0  0  0  0  0
   -1.2908    2.6761    0.7300 O   0  0  0  0  0  0  0  0  0  0  0  0
   -0.0734    3.8295   -1.7284 C   0  0  0  0  0  0  0  0  0  0  0  0
    0.7273    0.0322   -3.3882 C   0  0  0  0  0  0  0  0  0  0  0  0
    1.6935   -2.1002   -0.2662 C   0  0  0  0  0  0  0  0  0  0  0  0
    0.8987   -3.1552    0.2721 O   0  0  0  0  0  0  0  0  0  0  0  0
    1.3264   -3.3758    1.6148 C   0  0  0  0  0  0  0  0  0  0  0  0
    2.7459   -3.9476    1.6194 C   0  0  0  0  0  0  0  0  0  0  0  0
    3.6942   -2.9353    0.9668 C   0  0  0  0  0  0  0  0  0  0  0  0
    5.0288   -3.5321    0.8226 N   0  0  0  0  0  0  0  0  0  0  0  0
    5.8782   -2.5173    0.1849 C   0  0  0  0  0  0  0  0  0  0  0  0
    5.5526   -3.7280    2.1810 C   0  0  0  0  0  0  0  0  0  0  0  0
    3.1431   -2.5676   -0.4155 C   0  0  0  0  0  0  0  0  0  0  0  0
    3.1908   -3.7125   -1.2693 O   0  0  0  0  0  0  0  0  0  0  0  0
    1.3096   -2.0499    2.3782 C   0  0  0  0  0  0  0  0  0  0  0  0
   -0.1761   -0.8379   -0.2659 H   0  0  0  0  0  0  0  0  0  0  0  0
   -1.2295    0.2696   -2.5192 H   0  0  0  0  0  0  0  0  0  0  0  0
    0.2202    1.1067   -0.2921 H   0  0  0  0  0  0  0  0  0  0  0  0
    1.5876    2.7640    0.0680 H   0  0  0  0  0  0  0  0  0  0  0  0
    3.5111    0.1841    1.7448 H   0  0  0  0  0  0  0  0  0  0  0  0
    4.6884    2.4010    2.2585 H   0  0  0  0  0  0  0  0  0  0  0  0
    5.6425    0.5218    1.4612 H   0  0  0  0  0  0  0  0  0  0  0  0
    6.4166    5.1135   -1.2978 H   0  0  0  0  0  0  0  0  0  0  0  0
    4.7485    4.6272   -1.6841 H   0  0  0  0  0  0  0  0  0  0  0  0
    5.0732    5.6330   -0.2520 H   0  0  0  0  0  0  0  0  0  0  0  0
    4.1052    2.2504   -1.5851 H   0  0  0  0  0  0  0  0  0  0  0  0
    3.2351    3.7951   -1.4685 H   0  0  0  0  0  0  0  0  0  0  0  0
    4.3141    4.7828    1.8225 H   0  0  0  0  0  0  0  0  0  0  0  0
    3.4390    5.2134    0.3336 H   0  0  0  0  0  0  0  0  0  0  0  0
    2.7059    4.0897    1.5033 H   0  0  0  0  0  0  0  0  0  0  0  0
    1.4542    0.9750    2.6162 H   0  0  0  0  0  0  0  0  0  0  0  0
    2.7397    2.0084    3.2854 H   0  0  0  0  0  0  0  0  0  0  0  0
    1.7065    2.6135    1.9684 H   0  0  0  0  0  0  0  0  0  0  0  0
   -1.3899    2.2951   -2.4723 H   0  0  0  0  0  0  0  0  0  0  0  0
   -4.3582    3.6276    0.6568 H   0  0  0  0  0  0  0  0  0  0  0  0
   -5.4478    2.1778   -1.4664 H   0  0  0  0  0  0  0  0  0  0  0  0
   -3.7890    0.3251    1.4398 H   0  0  0  0  0  0  0  0  0  0  0  0
   -5.4536   -0.5409    2.7563 H   0  0  0  0  0  0  0  0  0  0  0  0
   -5.0788   -0.5565   -0.8026 H   0  0  0  0  0  0  0  0  0  0  0  0
   -3.6541   -2.0857   -1.5758 H   0  0  0  0  0  0  0  0  0  0  0  0
   -1.6760   -1.8921    0.4006 H   0  0  0  0  0  0  0  0  0  0  0  0
   -1.5451   -3.5714   -0.1747 H   0  0  0  0  0  0  0  0  0  0  0  0
   -3.2052    0.3571   -2.4386 H   0  0  0  0  0  0  0  0  0  0  0  0
   -3.3888   -0.7167   -1.0309 H   0  0  0  0  0  0  0  0  0  0  0  0
   -1.8759    0.1911   -1.2665 H   0  0  0  0  0  0  0  0  0  0  0  0
   -1.3961   -4.0019   -2.6502 H   0  0  0  0  0  0  0  0  0  0  0  0
   -0.1713   -2.9357   -3.3791 H   0  0  0  0  0  0  0  0  0  0  0  0
    0.1609   -3.7422   -1.8275 H   0  0  0  0  0  0  0  0  0  0  0  0
   -4.9531   -4.0931   -0.9188 H   0  0  0  0  0  0  0  0  0  0  0  0
   -3.3689   -4.5489   -1.5901 H   0  0  0  0  0  0  0  0  0  0  0  0
   -3.6350   -4.5899    0.1694 H   0  0  0  0  0  0  0  0  0  0  0  0
   -7.2679   -0.6121    0.3608 H   0  0  0  0  0  0  0  0  0  0  0  0
   -6.7421   -2.2518   -0.0899 H   0  0  0  0  0  0  0  0  0  0  0  0
   -6.5847   -1.6983    1.5944 H   0  0  0  0  0  0  0  0  0  0  0  0
   -6.6232    3.1821    0.3474 H   0  0  0  0  0  0  0  0  0  0  0  0
   -7.2434    1.5642    0.7547 H   0  0  0  0  0  0  0  0  0  0  0  0
   -6.3089    2.4875    1.9558 H   0  0  0  0  0  0  0  0  0  0  0  0
   -2.7936    1.2436    1.7456 H   0  0  0  0  0  0  0  0  0  0  0  0
   -2.3864    2.9589    1.9914 H   0  0  0  0  0  0  0  0  0  0  0  0
   -3.7467    1.6975    3.8510 H   0  0  0  0  0  0  0  0  0  0  0  0
   -4.2546    3.3358    3.3753 H   0  0  0  0  0  0  0  0  0  0  0  0
   -5.1265    1.9164    2.7480 H   0  0  0  0  0  0  0  0  0  0  0  0
    0.5890    3.7767   -2.5924 H   0  0  0  0  0  0  0  0  0  0  0  0
   -0.7965    4.6322   -1.8734 H   0  0  0  0  0  0  0  0  0  0  0  0
    0.5141    4.0273   -0.8318 H   0  0  0  0  0  0  0  0  0  0  0  0
    0.4408   -0.8377   -3.9794 H   0  0  0  0  0  0  0  0  0  0  0  0
    0.6460    0.9303   -4.0005 H   0  0  0  0  0  0  0  0  0  0  0  0
    1.7560   -0.0832   -3.0471 H   0  0  0  0  0  0  0  0  0  0  0  0
    1.6579   -1.2415    0.4042 H   0  0  0  0  0  0  0  0  0  0  0  0
    0.6504   -4.0803    2.0993 H   0  0  0  0  0  0  0  0  0  0  0  0
    3.0610   -4.1330    2.6463 H   0  0  0  0  0  0  0  0  0  0  0  0
    2.7650   -4.8807    1.0565 H   0  0  0  0  0  0  0  0  0  0  0  0
    3.7583   -2.0415    1.5873 H   0  0  0  0  0  0  0  0  0  0  0  0
    5.9170   -1.6282    0.8143 H   0  0  0  0  0  0  0  0  0  0  0  0
    6.8848   -2.9152    0.0557 H   0  0  0  0  0  0  0  0  0  0  0  0
    5.4633   -2.2557   -0.7884 H   0  0  0  0  0  0  0  0  0  0  0  0
    6.5849   -4.0734    2.1260 H   0  0  0  0  0  0  0  0  0  0  0  0
    5.5137   -2.7843    2.7251 H   0  0  0  0  0  0  0  0  0  0  0  0
    4.9478   -4.4717    2.6999 H   0  0  0  0  0  0  0  0  0  0  0  0
    3.7426   -1.7652   -0.8455 H   0  0  0  0  0  0  0  0  0  0  0  0
    2.8360   -3.4375   -2.1258 H   0  0  0  0  0  0  0  0  0  0  0  0
    0.3373   -1.5726    2.2561 H   0  0  0  0  0  0  0  0  0  0  0  0
    1.4919   -2.2376    3.4363 H   0  0  0  0  0  0  0  0  0  0  0  0
    2.0877   -1.3950    1.9861 H   0  0  0  0  0  0  0  0  0  0  0  0
  1  2  1  0  0  0  0
  2  3  1  0  0  0  0
  3  4  1  0  0  0  0
  4  5  1  0  0  0  0
  5  6  1  0  0  0  0
  6  7  1  0  0  0  0
  7  8  1  0  0  0  0
  8  9  1  0  0  0  0
  9 10  1  0  0  0  0
  9 11  1  0  0  0  0
 11 12  1  0  0  0  0
 12 13  1  0  0  0  0
 11 14  1  0  0  0  0
  6 14  1  0  0  0  0
 11 15  1  0  0  0  0
  8 16  1  0  0  0  0
  4 17  1  0  0  0  0
 17 18  1  0  0  0  0
 18 19  1  0  0  0  0
 19 20  1  0  0  0  0
 20 21  1  0  0  0  0
 21 22  1  0  0  0  0
 21 23  1  0  0  0  0
 23 24  1  0  0  0  0
 23 25  1  0  0  0  0
 25 26  1  0  0  0  0
 26 27  2  0  0  0  0
 26 28  1  0  0  0  0
 28 29  1  0  0  0  0
 29 30  1  0  0  0  0
  2 30  1  0  0  0  0
 30 31  1  0  0  0  0
 31 32  1  0  0  0  0
 30 33  1  0  0  0  0
 28 34  1  0  0  0  0
 25 35  1  0  0  0  0
 21 36  1  0  0  0  0
 20 37  1  0  0  0  0
 37 38  1  0  0  0  0
 18 39  2  0  0  0  0
 17 40  1  0  0  0  0
  3 41  1  0  0  0  0
  1 42  1  0  0  0  0
 42 43  1  0  0  0  0
 43 44  1  0  0  0  0
 44 45  1  0  0  0  0
 45 46  1  0  0  0  0
 46 47  1  0  0  0  0
 47 48  1  0  0  0  0
 47 49  1  0  0  0  0
 46 50  1  0  0  0  0
 42 50  1  0  0  0  0
 50 51  1  0  0  0  0
 44 52  1  0  0  0  0
  2 53  1  0  0  0  0
  3 54  1  0  0  0  0
  4 55  1  0  0  0  0
  6 56  1  0  0  0  0
  8 57  1  0  0  0  0
  9 58  1  0  0  0  0
 10 59  1  0  0  0  0
 13 60  1  0  0  0  0
 13 61  1  0  0  0  0
 13 62  1  0  0  0  0
 14 63  1  0  0  0  0
 14 64  1  0  0  0  0
 15 65  1  0  0  0  0
 15 66  1  0  0  0  0
 15 67  1  0  0  0  0
 16 68  1  0  0  0  0
 16 69  1  0  0  0  0
 16 70  1  0  0  0  0
 17 71  1  0  0  0  0
 20 72  1  0  0  0  0
 22 73  1  0  0  0  0
 23 74  1  0  0  0  0
 24 75  1  0  0  0  0
 25 76  1  0  0  0  0
 28 77  1  0  0  0  0
 29 78  1  0  0  0  0
 29 79  1  0  0  0  0
 32 80  1  0  0  0  0
 32 81  1  0  0  0  0
 32 82  1  0  0  0  0
 33 83  1  0  0  0  0
 33 84  1  0  0  0  0
 33 85  1  0  0  0  0
 34 86  1  0  0  0  0
 34 87  1  0  0  0  0
 34 88  1  0  0  0  0
 35 89  1  0  0  0  0
 35 90  1  0  0  0  0
 35 91  1  0  0  0  0
 36 92  1  0  0  0  0
 36 93  1  0  0  0  0
 36 94  1  0  0  0  0
 37 95  1  0  0  0  0
 37 96  1  0  0  0  0
 38 97  1  0  0  0  0
 38 98  1  0  0  0  0
 38 99  1  0  0  0  0
 40100  1  0  0  0  0
 40101  1  0  0  0  0
 40102  1  0  0  0  0
 41103  1  0  0  0  0
 41104  1  0  0  0  0
 41105  1  0  0  0  0
 42106  1  0  0  0  0
 44107  1  0  0  0  0
 45108  1  0  0  0  0
 45109  1  0  0  0  0
 46110  1  0  0  0  0
 48111  1  0  0  0  0
 48112  1  0  0  0  0
 48113  1  0  0  0  0
 49114  1  0  0  0  0
 49115  1  0  0  0  0
 49116  1  0  0  0  0
 50117  1  0  0  0  0
 51118  1  0  0  0  0
 52119  1  0  0  0  0
 52120  1  0  0  0  0
 52121  1  0  0  0  0
M  END
> <UNIQUE_SMILES>
CCC1OC(=O)C(C)C(OC2CC(C)(OC)C(O)C(C)O2)C(C)C(OC3OC(C)CC(C3O)N(C)C)C(C)(CC(C)C(=O)C(C)C(O)C1(C)O)OC

> <USER_SUPPLIED_SMILES>
O(C2C(C(OC1OC(C(O)C(OC)(C1)C)C)C(C(OC(C(O)(C(O)C(C(=O)C(CC2(OC)C)C)C)C)CC)=O)C)C)C3OC(CC(N(C)C)C3O)C

$$$$
C23H28ClN3O5S
APtclcactv12272117193D 0   0.00000     0.00000     6
 
 61 63  0  0  0  0  0  0  0  0999 V2000
   -7.3447   -3.6606    0.8922 Cl  0  0  0  0  0  0  0  0  0  0  0  0
   -7.2824   -2.0140    0.3458 C   0  0  0  0  0  0  0  0  0  0  0  0
   -6.0716   -1.3563    0.2839 C   0  0  0  0  0  0  0  0  0  0  0  0
   -6.0207   -0.0316   -0.1560 C   0  0  0  0  0  0  0  0  0  0  0  0
   -4.7289    0.6779   -0.2253 C   0  0  0  0  0  0  0  0  0  0  0  0
   -4.6885    1.8310   -0.6088 O   0  0  0  0  0  0  0  0  0  0  0  0
   -3.5938    0.0478    0.1365 N   0  0  0  0  0  0  0  0  0  0  0  0
   -2.3111    0.7523    0.0677 C   0  0  0  0  0  0  0  0  0  0  0  0
   -1.1908   -0.1816    0.5299 C   0  0  0  0  0  0  0  0  0  0  0  0
    0.1286    0.5431    0.4592 C   0  0  0  0  0  0  0  0  0  0  0  0
    0.5856    1.2550    1.5524 C   0  0  0  0  0  0  0  0  0  0  0  0
    1.7959    1.9198    1.4875 C   0  0  0  0  0  0  0  0  0  0  0  0
    2.5493    1.8724    0.3295 C   0  0  0  0  0  0  0  0  0  0  0  0
    4.0916    2.7202    0.2465 S   0  0  0  0  0  0  0  0  0  0  0  0
    4.3405    2.9346   -1.1360 O   0  0  0  0  0  0  0  0  0  0  0  0
    4.0275    3.7362    1.2379 O   0  0  0  0  0  0  0  0  0  0  0  0
    5.2635    1.6672    0.7567 N   0  0  0  0  0  0  0  0  0  0  0  0
    5.5284    0.5559    0.0417 C   0  0  0  0  0  0  0  0  0  0  0  0
    4.9070    0.3264   -0.9779 O   0  0  0  0  0  0  0  0  0  0  0  0
    6.4822   -0.3011    0.4568 N   0  0  0  0  0  0  0  0  0  0  0  0
    6.7701   -1.5092   -0.3203 C   0  0  0  0  0  0  0  0  0  0  0  0
    8.2065   -1.9603   -0.0482 C   0  0  0  0  0  0  0  0  0  0  0  0
    8.5072   -3.2220   -0.8599 C   0  0  0  0  0  0  0  0  0  0  0  0
    7.5378   -4.3334   -0.4528 C   0  0  0  0  0  0  0  0  0  0  0  0
    6.1013   -3.8823   -0.7249 C   0  0  0  0  0  0  0  0  0  0  0  0
    5.8006   -2.6206    0.0868 C   0  0  0  0  0  0  0  0  0  0  0  0
    2.0929    1.1593   -0.7633 C   0  0  0  0  0  0  0  0  0  0  0  0
    0.8845    0.4913   -0.6970 C   0  0  0  0  0  0  0  0  0  0  0  0
   -7.2035    0.6197   -0.5317 C   0  0  0  0  0  0  0  0  0  0  0  0
   -7.1659    1.9062   -0.9610 O   0  0  0  0  0  0  0  0  0  0  0  0
   -8.5114    2.2799   -1.2644 C   0  0  0  0  0  0  0  0  0  0  0  0
   -8.4122   -0.0563   -0.4633 C   0  0  0  0  0  0  0  0  0  0  0  0
   -8.4488   -1.3675   -0.0317 C   0  0  0  0  0  0  0  0  0  0  0  0
   -5.1644   -1.8646    0.5754 H   0  0  0  0  0  0  0  0  0  0  0  0
   -3.6260   -0.8721    0.4424 H   0  0  0  0  0  0  0  0  0  0  0  0
   -2.1229    1.0649   -0.9594 H   0  0  0  0  0  0  0  0  0  0  0  0
   -2.3431    1.6292    0.7143 H   0  0  0  0  0  0  0  0  0  0  0  0
   -1.3790   -0.4942    1.5570 H   0  0  0  0  0  0  0  0  0  0  0  0
   -1.1589   -1.0585   -0.1167 H   0  0  0  0  0  0  0  0  0  0  0  0
   -0.0030    1.2921    2.4571 H   0  0  0  0  0  0  0  0  0  0  0  0
    2.1526    2.4766    2.3414 H   0  0  0  0  0  0  0  0  0  0  0  0
    5.7593    1.8503    1.5700 H   0  0  0  0  0  0  0  0  0  0  0  0
    6.9779   -0.1181    1.2702 H   0  0  0  0  0  0  0  0  0  0  0  0
    6.6516   -1.2947   -1.3824 H   0  0  0  0  0  0  0  0  0  0  0  0
    8.8972   -1.1685   -0.3383 H   0  0  0  0  0  0  0  0  0  0  0  0
    8.3250   -2.1748    1.0139 H   0  0  0  0  0  0  0  0  0  0  0  0
    8.3887   -3.0075   -1.9220 H   0  0  0  0  0  0  0  0  0  0  0  0
    9.5305   -3.5434   -0.6661 H   0  0  0  0  0  0  0  0  0  0  0  0
    7.7520   -5.2322   -1.0310 H   0  0  0  0  0  0  0  0  0  0  0  0
    7.6562   -4.5479    0.6093 H   0  0  0  0  0  0  0  0  0  0  0  0
    5.9829   -3.6678   -1.7870 H   0  0  0  0  0  0  0  0  0  0  0  0
    5.4107   -4.6741   -0.4349 H   0  0  0  0  0  0  0  0  0  0  0  0
    5.9191   -2.8351    1.1489 H   0  0  0  0  0  0  0  0  0  0  0  0
    4.7773   -2.2992   -0.1071 H   0  0  0  0  0  0  0  0  0  0  0  0
    2.6817    1.1219   -1.6679 H   0  0  0  0  0  0  0  0  0  0  0  0
    0.5279   -0.0658   -1.5508 H   0  0  0  0  0  0  0  0  0  0  0  0
   -8.5316    3.3117   -1.6153 H   0  0  0  0  0  0  0  0  0  0  0  0
   -8.9042    1.6241   -2.0414 H   0  0  0  0  0  0  0  0  0  0  0  0
   -9.1247    2.1890   -0.3679 H   0  0  0  0  0  0  0  0  0  0  0  0
   -9.3258    0.4422   -0.7516 H   0  0  0  0  0  0  0  0  0  0  0  0
   -9.3928   -1.8898    0.0194 H   0  0  0  0  0  0  0  0  0  0  0  0
  1  2  1  0  0  0  0
  2  3  1  0  0  0  0
  3  4  2  0  0  0  0
  4  5  1  0  0  0  0
  5  6  2  0  0  0  0
  5  7  1  0  0  0  0
  7  8  1  0  0  0  0
  8  9  1  0  0  0  0
  9 10  1  0  0  0  0
 10 11  1  0  0  0  0
 11 12  2  0  0  0  0
 12 13  1  0  0  0  0
 13 14  1  0  0  0  0
 14 15  2  0  0  0  0
 14 16  2  0  0  0  0
 14 17  1  0  0  0  0
 17 18  1  0  0  0  0
 18 19  2  0  0  0  0
 18 20  1  0  0  0  0
 20 21  1  0  0  0  0
 21 22  1  0  0  0  0
 22 23  1  0  0  0  0
 23 24  1  0  0  0  0
 24 25  1  0  0  0  0
 25 26  1  0  0  0  0
 21 26  1  0  0  0  0
 13 27  2  0  0  0  0
 27 28  1  0  0  0  0
 10 28  2  0  0  0  0
  4 29  1  0  0  0  0
 29 30  1  0  0  0  0
 30 31  1  0  0  0  0
 29 32  2  0  0  0  0
 32 33  1  0  0  0  0
  2 33  2  0  0  0  0
  3 34  1  0  0  0  0
  7 35  1  0  0  0  0
  8 36  1  0  0  0  0
  8 37  1  0  0  0  0
  9 38  1  0  0  0  0
  9 39  1  0  0  0  0
 11 40  1  0  0  0  0
 12 41  1  0  0  0  0
 17 42  1  0  0  0  0
 20 43  1  0  0  0  0
 21 44  1  0  0  0  0
 22 45  1  0  0  0  0
 22 46  1  0  0  0  0
 23 47  1  0  0  0  0
 23 48  1  0  0  0  0
 24 49  1  0  0  0  0
 24 50  1  0  0  0  0
 25 51  1  0  0  0  0
 25 52  1  0  0  0  0
 26 53  1  0  0  0  0
 26 54  1  0  0  0  0
 27 55  1  0  0  0  0
 28 56  1  0  0  0  0
 31 57  1  0  0  0  0
 31 58  1  0  0  0  0
 31 59  1  0  0  0  0
 32 60  1  0  0  0  0
 33 61  1  0  0  0  0
M  END
> <UNIQUE_SMILES>
COC1=CC=C(Cl)C=C1C(=O)NCCC2=CC=C(C=C2)[S](=O)(=O)NC(=O)NC3CCCCC3

> <USER_SUPPLIED_SMILES>
Clc3cc(C(=O)NCCc2ccc(S(=O)(=O)NC(=O)NC1CCCCC1)cc2)c(OC)cc3

$$$$
C22H19N3O4
APtclcactv12272117193D 0   0.00000     0.00000     7
 
 48 53  0  0  0  0  0  0  0  0999 V2000
   -1.8682    2.9434    0.2616 C   0  0  0  0  0  0  0  0  0  0  0  0
   -2.8035    1.9373   -0.0920 C   0  0  0  0  0  0  0  0  0  0  0  0
   -4.0760    2.2646   -0.5704 C   0  0  0  0  0  0  0  0  0  0  0  0
   -4.3720    3.6006   -0.6821 C   0  0  0  0  0  0  0  0  0  0  0  0
   -3.4619    4.5873   -0.3397 C   0  0  0  0  0  0  0  0  0  0  0  0
   -2.1968    4.2918    0.1377 C   0  0  0  0  0  0  0  0  0  0  0  0
   -2.1421    0.6716    0.1529 C   0  0  0  0  0  0  0  0  0  0  0  0
   -0.9077    0.9557    0.6216 C   0  0  0  0  0  0  0  0  0  0  0  0
   -0.7335    2.3127    0.6841 N   0  0  0  0  0  0  0  0  0  0  0  0
    0.1025   -0.1013    1.0062 C   0  0  0  0  0  0  0  0  0  0  0  0
   -0.3995   -1.3968    0.5005 N   0  0  0  0  0  0  0  0  0  0  0  0
   -1.8099   -1.7149    0.7195 C   0  0  0  0  0  0  0  0  0  0  0  0
   -2.6787   -0.7202   -0.0632 C   0  0  0  0  0  0  0  0  0  0  0  0
   -2.1422   -3.1103    0.2986 C   0  0  0  0  0  0  0  0  0  0  0  0
   -1.2864   -3.9339   -0.3032 N   0  0  0  0  0  0  0  0  0  0  0  0
    0.0868   -3.5807   -0.6225 C   0  0  0  0  0  0  0  0  0  0  0  0
    0.4438   -2.2155   -0.1314 C   0  0  0  0  0  0  0  0  0  0  0  0
    1.5765   -1.8251   -0.3198 O   0  0  0  0  0  0  0  0  0  0  0  0
   -1.7560   -5.2739   -0.6638 C   0  0  0  0  0  0  0  0  0  0  0  0
   -3.2627   -3.5183    0.5197 O   0  0  0  0  0  0  0  0  0  0  0  0
    1.4361    0.2119    0.3780 C   0  0  0  0  0  0  0  0  0  0  0  0
    1.5141    0.4850   -0.9750 C   0  0  0  0  0  0  0  0  0  0  0  0
    2.7350    0.7733   -1.5557 C   0  0  0  0  0  0  0  0  0  0  0  0
    3.8843    0.7886   -0.7822 C   0  0  0  0  0  0  0  0  0  0  0  0
    3.8057    0.5135    0.5807 C   0  0  0  0  0  0  0  0  0  0  0  0
    2.5779    0.2310    1.1570 C   0  0  0  0  0  0  0  0  0  0  0  0
    5.0597    0.5907    1.1144 O   0  0  0  0  0  0  0  0  0  0  0  0
    5.8446    1.3147    0.1486 C   0  0  0  0  0  0  0  0  0  0  0  0
    5.1875    1.0383   -1.1024 O   0  0  0  0  0  0  0  0  0  0  0  0
   -4.7921    1.5023   -0.8398 H   0  0  0  0  0  0  0  0  0  0  0  0
   -5.3453    3.8916   -1.0488 H   0  0  0  0  0  0  0  0  0  0  0  0
   -3.7493    5.6226   -0.4492 H   0  0  0  0  0  0  0  0  0  0  0  0
   -1.4965    5.0705    0.4019 H   0  0  0  0  0  0  0  0  0  0  0  0
    0.2029   -0.1406    2.0909 H   0  0  0  0  0  0  0  0  0  0  0  0
   -2.0324   -1.6166    1.7820 H   0  0  0  0  0  0  0  0  0  0  0  0
   -3.7072   -0.7742    0.2938 H   0  0  0  0  0  0  0  0  0  0  0  0
   -2.6458   -0.9635   -1.1251 H   0  0  0  0  0  0  0  0  0  0  0  0
    0.7557   -4.3085   -0.1632 H   0  0  0  0  0  0  0  0  0  0  0  0
    0.2187   -3.6138   -1.7040 H   0  0  0  0  0  0  0  0  0  0  0  0
   -2.1766   -5.2531   -1.6692 H   0  0  0  0  0  0  0  0  0  0  0  0
   -0.9195   -5.9722   -0.6343 H   0  0  0  0  0  0  0  0  0  0  0  0
   -2.5212   -5.5934    0.0436 H   0  0  0  0  0  0  0  0  0  0  0  0
    0.6193    0.4727   -1.5796 H   0  0  0  0  0  0  0  0  0  0  0  0
    2.7930    0.9863   -2.6129 H   0  0  0  0  0  0  0  0  0  0  0  0
    2.5139    0.0177    2.2138 H   0  0  0  0  0  0  0  0  0  0  0  0
    5.8257    2.3832    0.3632 H   0  0  0  0  0  0  0  0  0  0  0  0
    6.8696    0.9443    0.1329 H   0  0  0  0  0  0  0  0  0  0  0  0
    0.0724    2.7585    0.9884 H   0  0  0  0  0  0  0  0  0  0  0  0
  1  2  2  0  0  0  0
  2  3  1  0  0  0  0
  3  4  2  0  0  0  0
  4  5  1  0  0  0  0
  5  6  2  0  0  0  0
  1  6  1  0  0  0  0
  2  7  1  0  0  0  0
  7  8  2  0  0  0  0
  8  9  1  0  0  0  0
  1  9  1  0  0  0  0
  8 10  1  0  0  0  0
 10 11  1  0  0  0  0
 11 12  1  0  0  0  0
 12 13  1  0  0  0  0
  7 13  1  0  0  0  0
 12 14  1  0  0  0  0
 14 15  1  0  0  0  0
 15 16  1  0  0  0  0
 16 17  1  0  0  0  0
 11 17  1  0  0  0  0
 17 18  2  0  0  0  0
 15 19  1  0  0  0  0
 14 20  2  0  0  0  0
 10 21  1  0  0  0  0
 21 22  1  0  0  0  0
 22 23  2  0  0  0  0
 23 24  1  0  0  0  0
 24 25  2  0  0  0  0
 25 26  1  0  0  0  0
 21 26  2  0  0  0  0
 25 27  1  0  0  0  0
 27 28  1  0  0  0  0
 28 29  1  0  0  0  0
 24 29  1  0  0  0  0
  3 30  1  0  0  0  0
  4 31  1  0  0  0  0
  5 32  1  0  0  0  0
  6 33  1  0  0  0  0
 10 34  1  0  0  0  0
 12 35  1  0  0  0  0
 13 36  1  0  0  0  0
 13 37  1  0  0  0  0
 16 38  1  0  0  0  0
 16 39  1  0  0  0  0
 19 40  1  0  0  0  0
 19 41  1  0  0  0  0
 19 42  1  0  0  0  0
 22 43  1  0  0  0  0
 23 44  1  0  0  0  0
 26 45  1  0  0  0  0
 28 46  1  0  0  0  0
 28 47  1  0  0  0  0
  9 48  1  0  0  0  0
M  END
> <UNIQUE_SMILES>
CN1CC(=O)N2C(CC3=C([NH]C4=C3C=CC=C4)C2C5=CC6=C(OCO6)C=C5)C1=O

> <USER_SUPPLIED_SMILES>
c12c(cccc1)c3c(n2)C(N4C(C3)C(N(CC4=O)C)=O)c5ccc6c(c5)OCO6

$$$$
C24H26N2O4
APtclcactv12272117193D 0   0.00000     0.00000     8
 
 56 59  0  0  0  0  0  0  0  0999 V2000
    5.3631    1.0463    0.2216 C   0  0  0  0  0  0  0  0  0  0  0  0
    4.9866   -0.3384   -0.1152 C   0  0  0  0  0  0  0  0  0  0  0  0
    6.1766   -1.0101   -0.4279 C   0  0  0  0  0  0  0  0  0  0  0  0
    7.2273   -0.1194   -0.2992 N   0  0  0  0  0  0  0  0  0  0  0  0
    6.7577    1.1224    0.0907 C   0  0  0  0  0  0  0  0  0  0  0  0
    7.4019    2.3282    0.3499 C   0  0  0  0  0  0  0  0  0  0  0  0
    6.6712    3.4327    0.7316 C   0  0  0  0  0  0  0  0  0  0  0  0
    5.2929    3.3558    0.8611 C   0  0  0  0  0  0  0  0  0  0  0  0
    4.6363    2.1720    0.6025 C   0  0  0  0  0  0  0  0  0  0  0  0
    6.1275   -2.3539   -0.7891 C   0  0  0  0  0  0  0  0  0  0  0  0
    4.9184   -3.0139   -0.8381 C   0  0  0  0  0  0  0  0  0  0  0  0
    3.7404   -2.3526   -0.5300 C   0  0  0  0  0  0  0  0  0  0  0  0
    3.7665   -1.0175   -0.1677 C   0  0  0  0  0  0  0  0  0  0  0  0
    2.6113   -0.3697    0.1347 O   0  0  0  0  0  0  0  0  0  0  0  0
    1.5544   -1.3204   -0.0108 C   0  0  0  0  0  0  0  0  0  0  0  0
    0.2180   -0.6514    0.3170 C   0  0  0  0  0  0  0  0  0  0  0  0
   -0.0542    0.3671   -0.6477 O   0  0  0  0  0  0  0  0  0  0  0  0
   -0.8980   -1.6975    0.2829 C   0  0  0  0  0  0  0  0  0  0  0  0
   -2.1811   -1.0552    0.5976 N   0  0  0  0  0  0  0  0  0  0  0  0
   -3.2038   -2.1086    0.5482 C   0  0  0  0  0  0  0  0  0  0  0  0
   -4.5730   -1.5055    0.8682 C   0  0  0  0  0  0  0  0  0  0  0  0
   -4.9360   -0.5777   -0.1562 O   0  0  0  0  0  0  0  0  0  0  0  0
   -6.1547   -0.0770    0.1809 C   0  0  0  0  0  0  0  0  0  0  0  0
   -6.7831   -0.5013    1.3407 C   0  0  0  0  0  0  0  0  0  0  0  0
   -8.0219    0.0086    1.6818 C   0  0  0  0  0  0  0  0  0  0  0  0
   -8.6366    0.9421    0.8680 C   0  0  0  0  0  0  0  0  0  0  0  0
   -8.0151    1.3697   -0.2904 C   0  0  0  0  0  0  0  0  0  0  0  0
   -6.7708    0.8668   -0.6352 C   0  0  0  0  0  0  0  0  0  0  0  0
   -6.1581    1.2864   -1.7745 O   0  0  0  0  0  0  0  0  0  0  0  0
   -7.0346    2.2319   -2.3908 C   0  0  0  0  0  0  0  0  0  0  0  0
    8.4752    2.3986    0.2524 H   0  0  0  0  0  0  0  0  0  0  0  0
    7.1766    4.3660    0.9319 H   0  0  0  0  0  0  0  0  0  0  0  0
    4.7313    4.2281    1.1612 H   0  0  0  0  0  0  0  0  0  0  0  0
    3.5626    2.1147    0.7041 H   0  0  0  0  0  0  0  0  0  0  0  0
    7.0388   -2.8802   -1.0318 H   0  0  0  0  0  0  0  0  0  0  0  0
    4.8889   -4.0562   -1.1196 H   0  0  0  0  0  0  0  0  0  0  0  0
    2.7993   -2.8807   -0.5729 H   0  0  0  0  0  0  0  0  0  0  0  0
    1.5348   -1.6877   -1.0368 H   0  0  0  0  0  0  0  0  0  0  0  0
    1.7198   -2.1548    0.6708 H   0  0  0  0  0  0  0  0  0  0  0  0
    0.2685   -0.2064    1.3107 H   0  0  0  0  0  0  0  0  0  0  0  0
   -0.0906   -0.0679   -1.5106 H   0  0  0  0  0  0  0  0  0  0  0  0
   -0.9485   -2.1426   -0.7109 H   0  0  0  0  0  0  0  0  0  0  0  0
   -0.6904   -2.4744    1.0188 H   0  0  0  0  0  0  0  0  0  0  0  0
   -2.1249   -0.7504    1.5578 H   0  0  0  0  0  0  0  0  0  0  0  0
   -3.2246   -2.5483   -0.4490 H   0  0  0  0  0  0  0  0  0  0  0  0
   -2.9664   -2.8801    1.2806 H   0  0  0  0  0  0  0  0  0  0  0  0
   -5.3172   -2.3002    0.9190 H   0  0  0  0  0  0  0  0  0  0  0  0
   -4.5273   -0.9887    1.8269 H   0  0  0  0  0  0  0  0  0  0  0  0
   -6.3053   -1.2307    1.9779 H   0  0  0  0  0  0  0  0  0  0  0  0
   -8.5108   -0.3232    2.5858 H   0  0  0  0  0  0  0  0  0  0  0  0
   -9.6046    1.3378    1.1378 H   0  0  0  0  0  0  0  0  0  0  0  0
   -8.4974    2.0990   -0.9244 H   0  0  0  0  0  0  0  0  0  0  0  0
   -6.5835    2.5982   -3.3129 H   0  0  0  0  0  0  0  0  0  0  0  0
   -7.9861    1.7510   -2.6178 H   0  0  0  0  0  0  0  0  0  0  0  0
   -7.2029    3.0677   -1.7116 H   0  0  0  0  0  0  0  0  0  0  0  0
    8.1595   -0.3347   -0.4590 H   0  0  0  0  0  0  0  0  0  0  0  0
  1  2  1  0  0  0  0
  2  3  2  0  0  0  0
  3  4  1  0  0  0  0
  4  5  1  0  0  0  0
  1  5  2  0  0  0  0
  5  6  1  0  0  0  0
  6  7  2  0  0  0  0
  7  8  1  0  0  0  0
  8  9  2  0  0  0  0
  1  9  1  0  0  0  0
  3 10  1  0  0  0  0
 10 11  2  0  0  0  0
 11 12  1  0  0  0  0
 12 13  2  0  0  0  0
  2 13  1  0  0  0  0
 13 14  1  0  0  0  0
 14 15  1  0  0  0  0
 15 16  1  0  0  0  0
 16 17  1  0  0  0  0
 16 18  1  0  0  0  0
 18 19  1  0  0  0  0
 19 20  1  0  0  0  0
 20 21  1  0  0  0  0
 21 22  1  0  0  0  0
 22 23  1  0  0  0  0
 23 24  1  0  0  0  0
 24 25  2  0  0  0  0
 25 26  1  0  0  0  0
 26 27  2  0  0  0  0
 27 28  1  0  0  0  0
 23 28  2  0  0  0  0
 28 29  1  0  0  0  0
 29 30  1  0  0  0  0
  6 31  1  0  0  0  0
  7 32  1  0  0  0  0
  8 33  1  0  0  0  0
  9 34  1  0  0  0  0
 10 35  1  0  0  0  0
 11 36  1  0  0  0  0
 12 37  1  0  0  0  0
 15 38  1  0  0  0  0
 15 39  1  0  0  0  0
 16 40  1  0  0  0  0
 17 41  1  0  0  0  0
 18 42  1  0  0  0  0
 18 43  1  0  0  0  0
 19 44  1  0  0  0  0
 20 45  1  0  0  0  0
 20 46  1  0  0  0  0
 21 47  1  0  0  0  0
 21 48  1  0  0  0  0
 24 49  1  0  0  0  0
 25 50  1  0  0  0  0
 26 51  1  0  0  0  0
 27 52  1  0  0  0  0
 30 53  1  0  0  0  0
 30 54  1  0  0  0  0
 30 55  1  0  0  0  0
  4 56  1  0  0  0  0
M  END
> <UNIQUE_SMILES>
COC1=C(OCCNCC(O)COC2=CC=CC3=C2C4=C([NH]3)C=CC=C4)C=CC=C1

> <USER_SUPPLIED_SMILES>
c12c3c(nc1cccc2)cccc3OCC(O)CNCCOc4ccccc4OC

$$$$
C20H28N4O4
APtclcactv12272117193D 0   0.00000     0.00000     9
 
 56 58  0  0  0  0  0  0  0  0999 V2000
   -5.1686   -0.7109    1.4887 O   0  0  0  0  0  0  0  0  0  0  0  0
   -4.9294   -0.5176    0.3155 C   0  0  0  0  0  0  0  0  0  0  0  0
   -3.8259    0.1679   -0.0432 N   0  0  0  0  0  0  0  0  0  0  0  0
   -2.9153    0.6797    0.9840 C   0  0  0  0  0  0  0  0  0  0  0  0
   -1.7521    1.4142    0.3143 C   0  0  0  0  0  0  0  0  0  0  0  0
   -0.8012    1.9487    1.3871 C   0  0  0  0  0  0  0  0  0  0  0  0
    0.3126    2.6520    0.7458 N   0  0  0  0  0  0  0  0  0  0  0  0
    0.2107    4.0871    0.4694 C   0  0  0  0  0  0  0  0  0  0  0  0
    1.4610    1.9606    0.4012 C   0  0  0  0  0  0  0  0  0  0  0  0
    2.4572    2.6257   -0.1804 N   0  0  0  0  0  0  0  0  0  0  0  0
    3.5753    2.0245   -0.5319 C   0  0  0  0  0  0  0  0  0  0  0  0
    4.6910    2.7957   -1.1886 C   0  0  0  0  0  0  0  0  0  0  0  0
    3.7046    0.6474   -0.2802 C   0  0  0  0  0  0  0  0  0  0  0  0
    4.8641   -0.0644   -0.6244 C   0  0  0  0  0  0  0  0  0  0  0  0
    4.9375   -1.4008   -0.3572 C   0  0  0  0  0  0  0  0  0  0  0  0
    6.0603   -2.0919   -0.6901 O   0  0  0  0  0  0  0  0  0  0  0  0
    6.9587   -1.1562   -1.2896 C   0  0  0  0  0  0  0  0  0  0  0  0
    3.8685   -2.0698    0.2573 C   0  0  0  0  0  0  0  0  0  0  0  0
    3.9687   -3.4002    0.5125 O   0  0  0  0  0  0  0  0  0  0  0  0
    2.7437   -3.7951    1.1332 C   0  0  0  0  0  0  0  0  0  0  0  0
    2.7276   -1.4012    0.6031 C   0  0  0  0  0  0  0  0  0  0  0  0
    2.6223   -0.0292    0.3413 C   0  0  0  0  0  0  0  0  0  0  0  0
    1.5271    0.6708    0.6668 N   0  0  0  0  0  0  0  0  0  0  0  0
   -5.8628   -1.0494   -0.7413 C   0  0  0  0  0  0  0  0  0  0  0  0
   -6.9074   -1.8133   -0.1273 O   0  0  0  0  0  0  0  0  0  0  0  0
   -8.1811   -1.2037   -0.3911 C   0  0  0  0  0  0  0  0  0  0  0  0
   -7.9772   -0.3876   -1.6923 C   0  0  0  0  0  0  0  0  0  0  0  0
   -6.5244    0.1246   -1.4946 C   0  0  0  0  0  0  0  0  0  0  0  0
   -3.6346    0.3225   -0.9815 H   0  0  0  0  0  0  0  0  0  0  0  0
   -3.4530    1.3685    1.6356 H   0  0  0  0  0  0  0  0  0  0  0  0
   -2.5288   -0.1515    1.5737 H   0  0  0  0  0  0  0  0  0  0  0  0
   -1.2145    0.7255   -0.3373 H   0  0  0  0  0  0  0  0  0  0  0  0
   -2.1386    2.2455   -0.2754 H   0  0  0  0  0  0  0  0  0  0  0  0
   -1.3388    2.6375    2.0387 H   0  0  0  0  0  0  0  0  0  0  0  0
   -0.4147    1.1175    1.9768 H   0  0  0  0  0  0  0  0  0  0  0  0
   -0.7579    4.4545    0.8082 H   0  0  0  0  0  0  0  0  0  0  0  0
    1.0047    4.6159    0.9967 H   0  0  0  0  0  0  0  0  0  0  0  0
    0.3097    4.2585   -0.6025 H   0  0  0  0  0  0  0  0  0  0  0  0
    5.3612    3.1877   -0.4235 H   0  0  0  0  0  0  0  0  0  0  0  0
    5.2465    2.1352   -1.8543 H   0  0  0  0  0  0  0  0  0  0  0  0
    4.2724    3.6221   -1.7630 H   0  0  0  0  0  0  0  0  0  0  0  0
    5.6925    0.4418   -1.0978 H   0  0  0  0  0  0  0  0  0  0  0  0
    7.8785   -1.6670   -1.5746 H   0  0  0  0  0  0  0  0  0  0  0  0
    6.4942   -0.7229   -2.1754 H   0  0  0  0  0  0  0  0  0  0  0  0
    7.1887   -0.3649   -0.5761 H   0  0  0  0  0  0  0  0  0  0  0  0
    2.7774   -4.8612    1.3579 H   0  0  0  0  0  0  0  0  0  0  0  0
    2.6068   -3.2332    2.0571 H   0  0  0  0  0  0  0  0  0  0  0  0
    1.9124   -3.5923    0.4580 H   0  0  0  0  0  0  0  0  0  0  0  0
    1.9116   -1.9280    1.0754 H   0  0  0  0  0  0  0  0  0  0  0  0
   -5.3099   -1.6753   -1.4418 H   0  0  0  0  0  0  0  0  0  0  0  0
   -8.9431   -1.9687   -0.5398 H   0  0  0  0  0  0  0  0  0  0  0  0
   -8.4617   -0.5435    0.4295 H   0  0  0  0  0  0  0  0  0  0  0  0
   -8.0522   -1.0263   -2.5724 H   0  0  0  0  0  0  0  0  0  0  0  0
   -8.6818    0.4421   -1.7502 H   0  0  0  0  0  0  0  0  0  0  0  0
   -6.5117    1.0306   -0.8887 H   0  0  0  0  0  0  0  0  0  0  0  0
   -6.0380    0.2923   -2.4555 H   0  0  0  0  0  0  0  0  0  0  0  0
  1  2  2  0  0  0  0
  2  3  1  0  0  0  0
  3  4  1  0  0  0  0
  4  5  1  0  0  0  0
  5  6  1  0  0  0  0
  6  7  1  0  0  0  0
  7  8  1  0  0  0  0
  7  9  1  0  0  0  0
  9 10  1  0  0  0  0
 10 11  2  0  0  0  0
 11 12  1  0  0  0  0
 11 13  1  0  0  0  0
 13 14  2  0  0  0  0
 14 15  1  0  0  0  0
 15 16  1  0  0  0  0
 16 17  1  0  0  0  0
 15 18  2  0  0  0  0
 18 19  1  0  0  0  0
 19 20  1  0  0  0  0
 18 21  1  0  0  0  0
 21 22  2  0  0  0  0
 13 22  1  0  0  0  0
 22 23  1  0  0  0  0
  9 23  2  0  0  0  0
  2 24  1  0  0  0  0
 24 25  1  0  0  0  0
 25 26  1  0  0  0  0
 26 27  1  0  0  0  0
 27 28  1  0  0  0  0
 24 28  1  0  0  0  0
  3 29  1  0  0  0  0
  4 30  1  0  0  0  0
  4 31  1  0  0  0  0
  5 32  1  0  0  0  0
  5 33  1  0  0  0  0
  6 34  1  0  0  0  0
  6 35  1  0  0  0  0
  8 36  1  0  0  0  0
  8 37  1  0  0  0  0
  8 38  1  0  0  0  0
 12 39  1  0  0  0  0
 12 40  1  0  0  0  0
 12 41  1  0  0  0  0
 14 42  1  0  0  0  0
 17 43  1  0  0  0  0
 17 44  1  0  0  0  0
 17 45  1  0  0  0  0
 20 46  1  0  0  0  0
 20 47  1  0  0  0  0
 20 48  1  0  0  0  0
 21 49  1  0  0  0  0
 24 50  1  0  0  0  0
 26 51  1  0  0  0  0
 26 52  1  0  0  0  0
 27 53  1  0  0  0  0
 27 54  1  0  0  0  0
 28 55  1  0  0  0  0
 28 56  1  0  0  0  0
M  END
> <UNIQUE_SMILES>
COC1=C(OC)C=C2C(=NC(=NC2=C1)N(C)CCCNC(=O)C3CCCO3)C

> <USER_SUPPLIED_SMILES>
O=C(NCCCN(C)c2nc(C)c1cc(OC)c(OC)cc1n2)C3OCCC3

$$$$
C17H21NO4
APtclcactv12272117193D 0   0.00000     0.00000    10
 
 43 45  0  0  0  0  0  0  0  0999 V2000
    1.5783    0.3859    0.9697 C   0  0  0  0  0  0  0  0  0  0  0  0
    0.7287   -0.6339    0.2059 C   0  0  0  0  0  0  0  0  0  0  0  0
   -0.6438   -0.1649    0.1381 O   0  0  0  0  0  0  0  0  0  0  0  0
   -1.6569   -1.0515    0.0892 C   0  0  0  0  0  0  0  0  0  0  0  0
   -1.4222   -2.2432    0.1017 O   0  0  0  0  0  0  0  0  0  0  0  0
   -3.0533   -0.5744    0.0202 C   0  0  0  0  0  0  0  0  0  0  0  0
   -4.1057   -1.4906   -0.0307 C   0  0  0  0  0  0  0  0  0  0  0  0
   -5.4073   -1.0382   -0.0945 C   0  0  0  0  0  0  0  0  0  0  0  0
   -5.6711    0.3201   -0.1086 C   0  0  0  0  0  0  0  0  0  0  0  0
   -4.6329    1.2335   -0.0589 C   0  0  0  0  0  0  0  0  0  0  0  0
   -3.3269    0.7948    0.0114 C   0  0  0  0  0  0  0  0  0  0  0  0
    1.2789   -0.8059   -1.2128 C   0  0  0  0  0  0  0  0  0  0  0  0
    2.7726   -1.1583   -1.1279 C   0  0  0  0  0  0  0  0  0  0  0  0
    3.4668    0.0082   -0.5203 N   0  0  0  0  0  0  0  0  0  0  0  0
    3.0518   -0.0472    0.9067 C   0  0  0  0  0  0  0  0  0  0  0  0
    3.1186   -1.5500    1.2637 C   0  0  0  0  0  0  0  0  0  0  0  0
    2.9341   -2.2841   -0.0807 C   0  0  0  0  0  0  0  0  0  0  0  0
    4.9045   -0.2917   -0.5537 C   0  0  0  0  0  0  0  0  0  0  0  0
    1.4243    1.7454    0.3379 C   0  0  0  0  0  0  0  0  0  0  0  0
    2.3909    2.3176   -0.1073 O   0  0  0  0  0  0  0  0  0  0  0  0
    0.2134    2.3205    0.2696 O   0  0  0  0  0  0  0  0  0  0  0  0
    0.0650    3.6303   -0.3392 C   0  0  0  0  0  0  0  0  0  0  0  0
    1.2536    0.4258    2.0095 H   0  0  0  0  0  0  0  0  0  0  0  0
    0.7592   -1.5921    0.7245 H   0  0  0  0  0  0  0  0  0  0  0  0
   -3.9011   -2.5510   -0.0205 H   0  0  0  0  0  0  0  0  0  0  0  0
   -6.2223   -1.7457   -0.1339 H   0  0  0  0  0  0  0  0  0  0  0  0
   -6.6919    0.6689   -0.1590 H   0  0  0  0  0  0  0  0  0  0  0  0
   -4.8457    2.2922   -0.0709 H   0  0  0  0  0  0  0  0  0  0  0  0
   -2.5175    1.5088    0.0502 H   0  0  0  0  0  0  0  0  0  0  0  0
    0.7424   -1.6094   -1.7175 H   0  0  0  0  0  0  0  0  0  0  0  0
    1.1541    0.1238   -1.7680 H   0  0  0  0  0  0  0  0  0  0  0  0
    3.1875   -1.4247   -2.1000 H   0  0  0  0  0  0  0  0  0  0  0  0
    3.6876    0.5660    1.5453 H   0  0  0  0  0  0  0  0  0  0  0  0
    4.0877   -1.7937    1.6992 H   0  0  0  0  0  0  0  0  0  0  0  0
    2.3156   -1.8123    1.9525 H   0  0  0  0  0  0  0  0  0  0  0  0
    2.0403   -2.9074   -0.0530 H   0  0  0  0  0  0  0  0  0  0  0  0
    3.8125   -2.8889   -0.3063 H   0  0  0  0  0  0  0  0  0  0  0  0
    5.2387   -0.3538   -1.5894 H   0  0  0  0  0  0  0  0  0  0  0  0
    5.4526    0.4992   -0.0418 H   0  0  0  0  0  0  0  0  0  0  0  0
    5.0888   -1.2432   -0.0549 H   0  0  0  0  0  0  0  0  0  0  0  0
   -0.9820    3.9313   -0.3031 H   0  0  0  0  0  0  0  0  0  0  0  0
    0.6703    4.3548    0.2056 H   0  0  0  0  0  0  0  0  0  0  0  0
    0.3954    3.5881   -1.3771 H   0  0  0  0  0  0  0  0  0  0  0  0
  1  2  1  0  0  0  0
  2  3  1  0  0  0  0
  3  4  1  0  0  0  0
  4  5  2  0  0  0  0
  4  6  1  0  0  0  0
  6  7  1  0  0  0  0
  7  8  2  0  0  0  0
  8  9  1  0  0  0  0
  9 10  2  0  0  0  0
 10 11  1  0  0  0  0
  6 11  2  0  0  0  0
  2 12  1  0  0  0  0
 12 13  1  0  0  0  0
 13 14  1  0  0  0  0
 14 15  1  0  0  0  0
  1 15  1  0  0  0  0
 15 16  1  0  0  0  0
 16 17  1  0  0  0  0
 13 17  1  0  0  0  0
 14 18  1  0  0  0  0
  1 19  1  0  0  0  0
 19 20  2  0  0  0  0
 19 21  1  0  0  0  0
 21 22  1  0  0  0  0
  1 23  1  0  0  0  0
  2 24  1  0  0  0  0
  7 25  1  0  0  0  0
  8 26  1  0  0  0  0
  9 27  1  0  0  0  0
 10 28  1  0  0  0  0
 11 29  1  0  0  0  0
 12 30  1  0  0  0  0
 12 31  1  0  0  0  0
 13 32  1  0  0  0  0
 15 33  1  0  0  0  0
 16 34  1  0  0  0  0
 16 35  1  0  0  0  0
 17 36  1  0  0  0  0
 17 37  1  0  0  0  0
 18 38  1  0  0  0  0
 18 39  1  0  0  0  0
 18 40  1  0  0  0  0
 22 41  1  0  0  0  0
 22 42  1  0  0  0  0
 22 43  1  0  0  0  0
M  END
> <UNIQUE_SMILES>
COC(=O)C1C(CC2CCC1N2C)OC(=O)C3=CC=CC=C3

> <USER_SUPPLIED_SMILES>
C2(C(OC(=O)c1ccccc1)CC3N(C2CC3)C)C(=O)OC

$$$$
C19H19ClFN
APtclcactv12272117193D 0   0.00000     0.00000    11
 
 41 43  0  0  0  0  0  0  0  0999 V2000
    2.9925    0.8464   -0.8545 C   0  0  0  0  0  0  0  0  0  0  0  0
    2.2307    0.1121    0.0445 C   0  0  0  0  0  0  0  0  0  0  0  0
    2.8523   -0.7591    0.9290 C   0  0  0  0  0  0  0  0  0  0  0  0
    4.2267   -0.8937    0.9129 C   0  0  0  0  0  0  0  0  0  0  0  0
    4.9848   -0.1602    0.0158 C   0  0  0  0  0  0  0  0  0  0  0  0
    4.3666    0.7090   -0.8674 C   0  0  0  0  0  0  0  0  0  0  0  0
    6.3292   -0.2929    0.0020 F   0  0  0  0  0  0  0  0  0  0  0  0
    0.8360    0.2506    0.0595 N   0  0  0  0  0  0  0  0  0  0  0  0
    0.1635    1.4430    0.1087 C   0  0  0  0  0  0  0  0  0  0  0  0
   -1.1606    1.2217    0.1098 C   0  0  0  0  0  0  0  0  0  0  0  0
   -1.3536   -0.2298    0.0571 C   0  0  0  0  0  0  0  0  0  0  0  0
   -0.0649   -0.7933    0.0210 C   0  0  0  0  0  0  0  0  0  0  0  0
    0.0758   -2.1754   -0.0336 C   0  0  0  0  0  0  0  0  0  0  0  0
   -1.0423   -2.9802   -0.0520 C   0  0  0  0  0  0  0  0  0  0  0  0
   -2.3151   -2.4251   -0.0168 C   0  0  0  0  0  0  0  0  0  0  0  0
   -2.4773   -1.0579    0.0338 C   0  0  0  0  0  0  0  0  0  0  0  0
   -3.7090   -3.4594   -0.0420 Cl  0  0  0  0  0  0  0  0  0  0  0  0
   -2.2438    2.2684    0.1572 C   0  0  0  0  0  0  0  0  0  0  0  0
   -2.0996    3.0939    1.4373 C   0  0  0  0  0  0  0  0  0  0  0  0
   -3.2702    4.0729    1.5473 C   0  0  0  0  0  0  0  0  0  0  0  0
   -2.1183    3.1877   -1.0593 C   0  0  0  0  0  0  0  0  0  0  0  0
   -2.3860    2.3856   -2.3345 C   0  0  0  0  0  0  0  0  0  0  0  0
    2.5104    1.5213   -1.5463 H   0  0  0  0  0  0  0  0  0  0  0  0
    2.2615   -1.3308    1.6293 H   0  0  0  0  0  0  0  0  0  0  0  0
    4.7106   -1.5713    1.6008 H   0  0  0  0  0  0  0  0  0  0  0  0
    4.9596    1.2805   -1.5661 H   0  0  0  0  0  0  0  0  0  0  0  0
    0.6294    2.4167    0.1420 H   0  0  0  0  0  0  0  0  0  0  0  0
    1.0607   -2.6177   -0.0620 H   0  0  0  0  0  0  0  0  0  0  0  0
   -0.9280   -4.0533   -0.0944 H   0  0  0  0  0  0  0  0  0  0  0  0
   -3.4682   -0.6294    0.0613 H   0  0  0  0  0  0  0  0  0  0  0  0
   -3.2194    1.7824    0.1462 H   0  0  0  0  0  0  0  0  0  0  0  0
   -2.1001    2.4285    2.3007 H   0  0  0  0  0  0  0  0  0  0  0  0
   -1.1625    3.6498    1.4075 H   0  0  0  0  0  0  0  0  0  0  0  0
   -3.1675    4.6611    2.4593 H   0  0  0  0  0  0  0  0  0  0  0  0
   -3.2698    4.7383    0.6839 H   0  0  0  0  0  0  0  0  0  0  0  0
   -4.2073    3.5170    1.5771 H   0  0  0  0  0  0  0  0  0  0  0  0
   -2.8444    3.9967   -0.9798 H   0  0  0  0  0  0  0  0  0  0  0  0
   -1.1120    3.6050   -1.0971 H   0  0  0  0  0  0  0  0  0  0  0  0
   -2.2965    3.0406   -3.2012 H   0  0  0  0  0  0  0  0  0  0  0  0
   -1.6599    1.5766   -2.4140 H   0  0  0  0  0  0  0  0  0  0  0  0
   -3.3922    1.9683   -2.2967 H   0  0  0  0  0  0  0  0  0  0  0  0
  1  2  1  0  0  0  0
  2  3  2  0  0  0  0
  3  4  1  0  0  0  0
  4  5  2  0  0  0  0
  5  6  1  0  0  0  0
  1  6  2  0  0  0  0
  5  7  1  0  0  0  0
  2  8  1  0  0  0  0
  8  9  1  0  0  0  0
  9 10  2  0  0  0  0
 10 11  1  0  0  0  0
 11 12  1  0  0  0  0
  8 12  1  0  0  0  0
 12 13  2  0  0  0  0
 13 14  1  0  0  0  0
 14 15  2  0  0  0  0
 15 16  1  0  0  0  0
 11 16  2  0  0  0  0
 15 17  1  0  0  0  0
 10 18  1  0  0  0  0
 18 19  1  0  0  0  0
 19 20  1  0  0  0  0
 18 21  1  0  0  0  0
 21 22  1  0  0  0  0
  1 23  1  0  0  0  0
  3 24  1  0  0  0  0
  4 25  1  0  0  0  0
  6 26  1  0  0  0  0
  9 27  1  0  0  0  0
 13 28  1  0  0  0  0
 14 29  1  0  0  0  0
 16 30  1  0  0  0  0
 18 31  1  0  0  0  0
 19 32  1  0  0  0  0
 19 33  1  0  0  0  0
 20 34  1  0  0  0  0
 20 35  1  0  0  0  0
 20 36  1  0  0  0  0
 21 37  1  0  0  0  0
 21 38  1  0  0  0  0
 22 39  1  0  0  0  0
 22 40  1  0  0  0  0
 22 41  1  0  0  0  0
M  END
> <UNIQUE_SMILES>
CCC(CC)C1=C[N](C2=CC=C(F)C=C2)C3=CC=C(Cl)C=C13

> <USER_SUPPLIED_SMILES>
c1c(ccc(c1)F)n2cc(c3c2ccc(c3)Cl)C(CC)CC

$$$$
C22H23ClN2O2
APtclcactv12272117193D 0   0.00000     0.00000    12
 
 50 53  0  0  0  0  0  0  0  0999 V2000
    0.7665   -0.7195   -0.3841 C   0  0  0  0  0  0  0  0  0  0  0  0
    1.3075   -2.0948   -0.3201 C   0  0  0  0  0  0  0  0  0  0  0  0
    0.7503   -2.9812   -1.1547 N   0  0  0  0  0  0  0  0  0  0  0  0
    1.1399   -4.2318   -1.2259 C   0  0  0  0  0  0  0  0  0  0  0  0
    2.1688   -4.6837   -0.4192 C   0  0  0  0  0  0  0  0  0  0  0  0
    2.7653   -3.8056    0.4631 C   0  0  0  0  0  0  0  0  0  0  0  0
    2.3247   -2.4770    0.5310 C   0  0  0  0  0  0  0  0  0  0  0  0
    3.0258   -1.6462    1.5729 C   0  0  0  0  0  0  0  0  0  0  0  0
    2.3634   -0.3341    1.8952 C   0  0  0  0  0  0  0  0  0  0  0  0
    2.4257    0.6481    0.7669 C   0  0  0  0  0  0  0  0  0  0  0  0
    1.6576    0.4627   -0.3568 C   0  0  0  0  0  0  0  0  0  0  0  0
    1.7105    1.3555   -1.4228 C   0  0  0  0  0  0  0  0  0  0  0  0
    2.5481    2.4528   -1.3366 C   0  0  0  0  0  0  0  0  0  0  0  0
    3.3172    2.6475   -0.2022 C   0  0  0  0  0  0  0  0  0  0  0  0
    3.2610    1.7499    0.8513 C   0  0  0  0  0  0  0  0  0  0  0  0
    4.3619    4.0301   -0.0987 Cl  0  0  0  0  0  0  0  0  0  0  0  0
   -0.5569   -0.5399   -0.4741 C   0  0  0  0  0  0  0  0  0  0  0  0
   -1.4987   -1.7235   -0.5108 C   0  0  0  0  0  0  0  0  0  0  0  0
   -2.5595   -1.5330    0.5807 C   0  0  0  0  0  0  0  0  0  0  0  0
   -3.1176   -0.1795    0.4664 N   0  0  0  0  0  0  0  0  0  0  0  0
   -2.2169    0.9774    0.5512 C   0  0  0  0  0  0  0  0  0  0  0  0
   -1.1477    0.8515   -0.5353 C   0  0  0  0  0  0  0  0  0  0  0  0
   -4.4412   -0.0010    0.2853 C   0  0  0  0  0  0  0  0  0  0  0  0
   -5.1801   -0.9632    0.2157 O   0  0  0  0  0  0  0  0  0  0  0  0
   -4.9447    1.2433    0.1814 O   0  0  0  0  0  0  0  0  0  0  0  0
   -6.3706    1.4356   -0.0137 C   0  0  0  0  0  0  0  0  0  0  0  0
   -6.6765    2.9323   -0.0987 C   0  0  0  0  0  0  0  0  0  0  0  0
    0.6568   -4.9091   -1.9146 H   0  0  0  0  0  0  0  0  0  0  0  0
    2.5006   -5.7098   -0.4787 H   0  0  0  0  0  0  0  0  0  0  0  0
    3.5700   -4.1419    1.1001 H   0  0  0  0  0  0  0  0  0  0  0  0
    3.0930   -2.2312    2.4902 H   0  0  0  0  0  0  0  0  0  0  0  0
    4.0387   -1.4432    1.2254 H   0  0  0  0  0  0  0  0  0  0  0  0
    1.3178   -0.5202    2.1407 H   0  0  0  0  0  0  0  0  0  0  0  0
    2.8533    0.1012    2.7662 H   0  0  0  0  0  0  0  0  0  0  0  0
    1.1073    1.1939   -2.3040 H   0  0  0  0  0  0  0  0  0  0  0  0
    2.6024    3.1568   -2.1538 H   0  0  0  0  0  0  0  0  0  0  0  0
    3.8646    1.9081    1.7328 H   0  0  0  0  0  0  0  0  0  0  0  0
   -1.9817   -1.7780   -1.4864 H   0  0  0  0  0  0  0  0  0  0  0  0
   -0.9415   -2.6417   -0.3249 H   0  0  0  0  0  0  0  0  0  0  0  0
   -3.3538   -2.2680    0.4506 H   0  0  0  0  0  0  0  0  0  0  0  0
   -2.1008   -1.6575    1.5617 H   0  0  0  0  0  0  0  0  0  0  0  0
   -2.7857    1.8951    0.4016 H   0  0  0  0  0  0  0  0  0  0  0  0
   -1.7386    0.9970    1.5304 H   0  0  0  0  0  0  0  0  0  0  0  0
   -0.3652    1.5916   -0.3676 H   0  0  0  0  0  0  0  0  0  0  0  0
   -1.5993    1.0098   -1.5147 H   0  0  0  0  0  0  0  0  0  0  0  0
   -6.6797    0.9485   -0.9385 H   0  0  0  0  0  0  0  0  0  0  0  0
   -6.9140    1.0008    0.8252 H   0  0  0  0  0  0  0  0  0  0  0  0
   -7.7469    3.0766   -0.2452 H   0  0  0  0  0  0  0  0  0  0  0  0
   -6.3674    3.4195    0.8260 H   0  0  0  0  0  0  0  0  0  0  0  0
   -6.1331    3.3671   -0.9377 H   0  0  0  0  0  0  0  0  0  0  0  0
  1  2  1  0  0  0  0
  2  3  1  0  0  0  0
  3  4  2  0  0  0  0
  4  5  1  0  0  0  0
  5  6  2  0  0  0  0
  6  7  1  0  0  0  0
  2  7  2  0  0  0  0
  7  8  1  0  0  0  0
  8  9  1  0  0  0  0
  9 10  1  0  0  0  0
 10 11  1  0  0  0  0
  1 11  1  0  0  0  0
 11 12  2  0  0  0  0
 12 13  1  0  0  0  0
 13 14  2  0  0  0  0
 14 15  1  0  0  0  0
 10 15  2  0  0  0  0
 14 16  1  0  0  0  0
  1 17  2  0  0  0  0
 17 18  1  0  0  0  0
 18 19  1  0  0  0  0
 19 20  1  0  0  0  0
 20 21  1  0  0  0  0
 21 22  1  0  0  0  0
 17 22  1  0  0  0  0
 20 23  1  0  0  0  0
 23 24  2  0  0  0  0
 23 25  1  0  0  0  0
 25 26  1  0  0  0  0
 26 27  1  0  0  0  0
  4 28  1  0  0  0  0
  5 29  1  0  0  0  0
  6 30  1  0  0  0  0
  8 31  1  0  0  0  0
  8 32  1  0  0  0  0
  9 33  1  0  0  0  0
  9 34  1  0  0  0  0
 12 35  1  0  0  0  0
 13 36  1  0  0  0  0
 15 37  1  0  0  0  0
 18 38  1  0  0  0  0
 18 39  1  0  0  0  0
 19 40  1  0  0  0  0
 19 41  1  0  0  0  0
 21 42  1  0  0  0  0
 21 43  1  0  0  0  0
 22 44  1  0  0  0  0
 22 45  1  0  0  0  0
 26 46  1  0  0  0  0
 26 47  1  0  0  0  0
 27 48  1  0  0  0  0
 27 49  1  0  0  0  0
 27 50  1  0  0  0  0
M  END
> <UNIQUE_SMILES>
CCOC(=O)N1CCC(CC1)=C2C3=CC=C(Cl)C=C3CCC4=C2N=CC=C4

> <USER_SUPPLIED_SMILES>
C2(\c1ncccc1CCc3c2ccc(c3)Cl)=C4\CCN(CC4)C(=O)OCC

$$$$
C21H23ClFNO2
APtclcactv12272117193D 0   0.00000     0.00000    13
 
 49 51  0  0  0  0  0  0  0  0999 V2000
    3.0123   -1.5680    1.5954 O   0  0  0  0  0  0  0  0  0  0  0  0
    3.0820   -0.7609    0.4183 C   0  0  0  0  0  0  0  0  0  0  0  0
    2.6550   -1.5891   -0.7975 C   0  0  0  0  0  0  0  0  0  0  0  0
    1.1858   -1.9876   -0.6440 C   0  0  0  0  0  0  0  0  0  0  0  0
    0.3486   -0.7845   -0.5887 N   0  0  0  0  0  0  0  0  0  0  0  0
    0.6950   -0.0679    0.6433 C   0  0  0  0  0  0  0  0  0  0  0  0
    2.1371    0.4364    0.5607 C   0  0  0  0  0  0  0  0  0  0  0  0
   -1.0387   -1.2424   -0.4348 C   0  0  0  0  0  0  0  0  0  0  0  0
   -1.9605   -0.0319   -0.2741 C   0  0  0  0  0  0  0  0  0  0  0  0
   -3.4171   -0.4995   -0.2511 C   0  0  0  0  0  0  0  0  0  0  0  0
   -4.3250    0.6928   -0.0928 C   0  0  0  0  0  0  0  0  0  0  0  0
   -5.7823    0.5055   -0.0425 C   0  0  0  0  0  0  0  0  0  0  0  0
   -6.6283    1.6106    0.1044 C   0  0  0  0  0  0  0  0  0  0  0  0
   -7.9928    1.4282    0.1504 C   0  0  0  0  0  0  0  0  0  0  0  0
   -8.5289    0.1526    0.0518 C   0  0  0  0  0  0  0  0  0  0  0  0
   -7.6960   -0.9471   -0.0935 C   0  0  0  0  0  0  0  0  0  0  0  0
   -6.3299   -0.7780   -0.1471 C   0  0  0  0  0  0  0  0  0  0  0  0
   -9.8681   -0.0195    0.0980 F   0  0  0  0  0  0  0  0  0  0  0  0
   -3.8535    1.8068   -0.0069 O   0  0  0  0  0  0  0  0  0  0  0  0
    4.4942   -0.2717    0.2248 C   0  0  0  0  0  0  0  0  0  0  0  0
    5.3094   -0.0630    1.3216 C   0  0  0  0  0  0  0  0  0  0  0  0
    6.6047    0.3856    1.1447 C   0  0  0  0  0  0  0  0  0  0  0  0
    7.0854    0.6258   -0.1302 C   0  0  0  0  0  0  0  0  0  0  0  0
    6.2690    0.4167   -1.2274 C   0  0  0  0  0  0  0  0  0  0  0  0
    4.9757   -0.0373   -1.0497 C   0  0  0  0  0  0  0  0  0  0  0  0
    8.7120    1.1898   -0.3530 Cl  0  0  0  0  0  0  0  0  0  0  0  0
    3.2885   -1.0089    2.3345 H   0  0  0  0  0  0  0  0  0  0  0  0
    2.7787   -0.9961   -1.7037 H   0  0  0  0  0  0  0  0  0  0  0  0
    3.2708   -2.4862   -0.8615 H   0  0  0  0  0  0  0  0  0  0  0  0
    0.8855   -2.5994   -1.4947 H   0  0  0  0  0  0  0  0  0  0  0  0
    1.0596   -2.5596    0.2752 H   0  0  0  0  0  0  0  0  0  0  0  0
    0.0215    0.7796    0.7712 H   0  0  0  0  0  0  0  0  0  0  0  0
    0.5946   -0.7411    1.4946 H   0  0  0  0  0  0  0  0  0  0  0  0
    2.3825    0.9880    1.4682 H   0  0  0  0  0  0  0  0  0  0  0  0
    2.2451    1.0905   -0.3045 H   0  0  0  0  0  0  0  0  0  0  0  0
   -1.3342   -1.8095   -1.3176 H   0  0  0  0  0  0  0  0  0  0  0  0
   -1.1160   -1.8776    0.4476 H   0  0  0  0  0  0  0  0  0  0  0  0
   -1.7284    0.4800    0.6598 H   0  0  0  0  0  0  0  0  0  0  0  0
   -1.8116    0.6517   -1.1100 H   0  0  0  0  0  0  0  0  0  0  0  0
   -3.6492   -1.0115   -1.1850 H   0  0  0  0  0  0  0  0  0  0  0  0
   -3.5661   -1.1831    0.5848 H   0  0  0  0  0  0  0  0  0  0  0  0
   -6.2121    2.6042    0.1820 H   0  0  0  0  0  0  0  0  0  0  0  0
   -8.6468    2.2802    0.2637 H   0  0  0  0  0  0  0  0  0  0  0  0
   -8.1196   -1.9376   -0.1694 H   0  0  0  0  0  0  0  0  0  0  0  0
   -5.6825   -1.6350   -0.2604 H   0  0  0  0  0  0  0  0  0  0  0  0
    4.9340   -0.2502    2.3168 H   0  0  0  0  0  0  0  0  0  0  0  0
    7.2415    0.5490    2.0017 H   0  0  0  0  0  0  0  0  0  0  0  0
    6.6436    0.6040   -2.2229 H   0  0  0  0  0  0  0  0  0  0  0  0
    4.3383   -0.2006   -1.9061 H   0  0  0  0  0  0  0  0  0  0  0  0
  1  2  1  0  0  0  0
  2  3  1  0  0  0  0
  3  4  1  0  0  0  0
  4  5  1  0  0  0  0
  5  6  1  0  0  0  0
  6  7  1  0  0  0  0
  2  7  1  0  0  0  0
  5  8  1  0  0  0  0
  8  9  1  0  0  0  0
  9 10  1  0  0  0  0
 10 11  1  0  0  0  0
 11 12  1  0  0  0  0
 12 13  1  0  0  0  0
 13 14  2  0  0  0  0
 14 15  1  0  0  0  0
 15 16  2  0  0  0  0
 16 17  1  0  0  0  0
 12 17  2  0  0  0  0
 15 18  1  0  0  0  0
 11 19  2  0  0  0  0
  2 20  1  0  0  0  0
 20 21  1  0  0  0  0
 21 22  2  0  0  0  0
 22 23  1  0  0  0  0
 23 24  2  0  0  0  0
 24 25  1  0  0  0  0
 20 25  2  0  0  0  0
 23 26  1  0  0  0  0
  1 27  1  0  0  0  0
  3 28  1  0  0  0  0
  3 29  1  0  0  0  0
  4 30  1  0  0  0  0
  4 31  1  0  0  0  0
  6 32  1  0  0  0  0
  6 33  1  0  0  0  0
  7 34  1  0  0  0  0
  7 35  1  0  0  0  0
  8 36  1  0  0  0  0
  8 37  1  0  0  0  0
  9 38  1  0  0  0  0
  9 39  1  0  0  0  0
 10 40  1  0  0  0  0
 10 41  1  0  0  0  0
 13 42  1  0  0  0  0
 14 43  1  0  0  0  0
 16 44  1  0  0  0  0
 17 45  1  0  0  0  0
 21 46  1  0  0  0  0
 22 47  1  0  0  0  0
 24 48  1  0  0  0  0
 25 49  1  0  0  0  0
M  END
> <UNIQUE_SMILES>
OC1(CCN(CCCC(=O)C2=CC=C(F)C=C2)CC1)C3=CC=C(Cl)C=C3

> <USER_SUPPLIED_SMILES>
OC1(CCN(CC1)CCCC(c2ccc(cc2)F)=O)c3ccc(cc3)Cl

$$$$
C17H16ClFN2
APtclcactv12272117193D 0   0.00000     0.00000    14
 
 37 39  0  0  0  0  0  0  0  0999 V2000
    3.1397    0.7982   -1.0165 C   0  0  0  0  0  0  0  0  0  0  0  0
    2.2767    0.2469   -0.0790 C   0  0  0  0  0  0  0  0  0  0  0  0
    2.7858   -0.4923    0.9803 C   0  0  0  0  0  0  0  0  0  0  0  0
    4.1492   -0.6779    1.0995 C   0  0  0  0  0  0  0  0  0  0  0  0
    5.0083   -0.1268    0.1636 C   0  0  0  0  0  0  0  0  0  0  0  0
    4.5024    0.6104   -0.8938 C   0  0  0  0  0  0  0  0  0  0  0  0
    6.3417   -0.3090    0.2822 F   0  0  0  0  0  0  0  0  0  0  0  0
    0.8934    0.4368   -0.2014 N   0  0  0  0  0  0  0  0  0  0  0  0
    0.2786    1.6452   -0.3969 C   0  0  0  0  0  0  0  0  0  0  0  0
   -1.0510    1.4755   -0.4704 C   0  0  0  0  0  0  0  0  0  0  0  0
   -1.3108    0.0426   -0.3091 C   0  0  0  0  0  0  0  0  0  0  0  0
   -0.0524   -0.5661   -0.1490 C   0  0  0  0  0  0  0  0  0  0  0  0
    0.0238   -1.9430    0.0271 C   0  0  0  0  0  0  0  0  0  0  0  0
   -1.1280   -2.6988    0.0437 C   0  0  0  0  0  0  0  0  0  0  0  0
   -2.3708   -2.0993   -0.1147 C   0  0  0  0  0  0  0  0  0  0  0  0
   -2.4688   -0.7369   -0.2942 C   0  0  0  0  0  0  0  0  0  0  0  0
   -3.8081   -3.0726   -0.0914 Cl  0  0  0  0  0  0  0  0  0  0  0  0
   -2.0818    2.5550   -0.6786 C   0  0  0  0  0  0  0  0  0  0  0  0
   -2.6871    2.9096    0.6121 N   0  0  0  0  0  0  0  0  0  0  0  0
   -3.4927    4.1165    0.3832 C   0  0  0  0  0  0  0  0  0  0  0  0
   -3.6272    1.8319    0.9477 C   0  0  0  0  0  0  0  0  0  0  0  0
    2.7453    1.3698   -1.8437 H   0  0  0  0  0  0  0  0  0  0  0  0
    2.1161   -0.9216    1.7108 H   0  0  0  0  0  0  0  0  0  0  0  0
    4.5456   -1.2528    1.9233 H   0  0  0  0  0  0  0  0  0  0  0  0
    5.1741    1.0397   -1.6225 H   0  0  0  0  0  0  0  0  0  0  0  0
    0.7881    2.5939   -0.4793 H   0  0  0  0  0  0  0  0  0  0  0  0
    0.9850   -2.4198    0.1505 H   0  0  0  0  0  0  0  0  0  0  0  0
   -1.0638   -3.7682    0.1808 H   0  0  0  0  0  0  0  0  0  0  0  0
   -3.4367   -0.2736   -0.4167 H   0  0  0  0  0  0  0  0  0  0  0  0
   -1.6044    3.4349   -1.1100 H   0  0  0  0  0  0  0  0  0  0  0  0
   -2.8556    2.1928   -1.3555 H   0  0  0  0  0  0  0  0  0  0  0  0
   -4.2611    3.9048   -0.3603 H   0  0  0  0  0  0  0  0  0  0  0  0
   -3.9649    4.4207    1.3173 H   0  0  0  0  0  0  0  0  0  0  0  0
   -2.8498    4.9195    0.0227 H   0  0  0  0  0  0  0  0  0  0  0  0
   -4.1045    2.0505    1.9030 H   0  0  0  0  0  0  0  0  0  0  0  0
   -4.3875    1.7578    0.1702 H   0  0  0  0  0  0  0  0  0  0  0  0
   -3.0872    0.8878    1.0190 H   0  0  0  0  0  0  0  0  0  0  0  0
  1  2  1  0  0  0  0
  2  3  2  0  0  0  0
  3  4  1  0  0  0  0
  4  5  2  0  0  0  0
  5  6  1  0  0  0  0
  1  6  2  0  0  0  0
  5  7  1  0  0  0  0
  2  8  1  0  0  0  0
  8  9  1  0  0  0  0
  9 10  2  0  0  0  0
 10 11  1  0  0  0  0
 11 12  1  0  0  0  0
  8 12  1  0  0  0  0
 12 13  2  0  0  0  0
 13 14  1  0  0  0  0
 14 15  2  0  0  0  0
 15 16  1  0  0  0  0
 11 16  2  0  0  0  0
 15 17  1  0  0  0  0
 10 18  1  0  0  0  0
 18 19  1  0  0  0  0
 19 20  1  0  0  0  0
 19 21  1  0  0  0  0
  1 22  1  0  0  0  0
  3 23  1  0  0  0  0
  4 24  1  0  0  0  0
  6 25  1  0  0  0  0
  9 26  1  0  0  0  0
 13 27  1  0  0  0  0
 14 28  1  0  0  0  0
 16 29  1  0  0  0  0
 18 30  1  0  0  0  0
 18 31  1  0  0  0  0
 20 32  1  0  0  0  0
 20 33  1  0  0  0  0
 20 34  1  0  0  0  0
 21 35  1  0  0  0  0
 21 36  1  0  0  0  0
 21 37  1  0  0  0  0
M  END
> <UNIQUE_SMILES>
CN(C)CC1=C[N](C2=CC=C(F)C=C2)C3=CC=C(Cl)C=C13

> <USER_SUPPLIED_SMILES>
c1c(ccc(c1)F)n2cc(c3c2ccc(c3)Cl)CN(C)C

$$$$
C24H34N2O
APtclcactv12272117193D 0   0.00000     0.00000    15
 
 61 63  0  0  0  0  0  0  0  0999 V2000
    3.3979    0.3690    0.3588 O   0  0  0  0  0  0  0  0  0  0  0  0
    2.1768   -0.0177    0.9924 C   0  0  0  0  0  0  0  0  0  0  0  0
    0.9945    0.3773    0.1051 C   0  0  0  0  0  0  0  0  0  0  0  0
    1.0217   -0.4182   -1.1296 N   0  0  0  0  0  0  0  0  0  0  0  0
    2.2777   -0.0799   -1.8239 C   0  0  0  0  0  0  0  0  0  0  0  0
    3.1376   -1.3607   -1.8632 C   0  0  0  0  0  0  0  0  0  0  0  0
    2.0886   -2.4912   -1.6946 C   0  0  0  0  0  0  0  0  0  0  0  0
    1.0780   -1.8375   -0.7194 C   0  0  0  0  0  0  0  0  0  0  0  0
   -0.3143    0.1142    0.8526 C   0  0  0  0  0  0  0  0  0  0  0  0
   -1.4470    0.3791   -0.0380 N   0  0  0  0  0  0  0  0  0  0  0  0
   -1.9915   -0.6966   -0.8703 C   0  0  0  0  0  0  0  0  0  0  0  0
   -3.0790   -1.4153   -0.1142 C   0  0  0  0  0  0  0  0  0  0  0  0
   -4.3896   -0.9876   -0.2150 C   0  0  0  0  0  0  0  0  0  0  0  0
   -5.3872   -1.6469    0.4787 C   0  0  0  0  0  0  0  0  0  0  0  0
   -5.0741   -2.7342    1.2728 C   0  0  0  0  0  0  0  0  0  0  0  0
   -3.7636   -3.1625    1.3729 C   0  0  0  0  0  0  0  0  0  0  0  0
   -2.7667   -2.5059    0.6759 C   0  0  0  0  0  0  0  0  0  0  0  0
   -2.0077    1.6571   -0.0936 C   0  0  0  0  0  0  0  0  0  0  0  0
   -3.0818    1.9100   -0.9375 C   0  0  0  0  0  0  0  0  0  0  0  0
   -3.6341    3.1747   -0.9896 C   0  0  0  0  0  0  0  0  0  0  0  0
   -3.1192    4.1887   -0.2029 C   0  0  0  0  0  0  0  0  0  0  0  0
   -2.0501    3.9404    0.6383 C   0  0  0  0  0  0  0  0  0  0  0  0
   -1.4963    2.6767    0.6992 C   0  0  0  0  0  0  0  0  0  0  0  0
    4.4496    0.0939    1.2863 C   0  0  0  0  0  0  0  0  0  0  0  0
    5.7727    0.6222    0.7285 C   0  0  0  0  0  0  0  0  0  0  0  0
    6.8856    0.3938    1.7532 C   0  0  0  0  0  0  0  0  0  0  0  0
    6.1121   -0.1182   -0.5667 C   0  0  0  0  0  0  0  0  0  0  0  0
    2.1723   -1.0970    1.1445 H   0  0  0  0  0  0  0  0  0  0  0  0
    2.0921    0.4854    1.9556 H   0  0  0  0  0  0  0  0  0  0  0  0
    1.0645    1.4363   -0.1433 H   0  0  0  0  0  0  0  0  0  0  0  0
    2.0621    0.2533   -2.8391 H   0  0  0  0  0  0  0  0  0  0  0  0
    2.8038    0.7033   -1.2781 H   0  0  0  0  0  0  0  0  0  0  0  0
    3.6509   -1.4510   -2.8205 H   0  0  0  0  0  0  0  0  0  0  0  0
    3.8513   -1.3712   -1.0395 H   0  0  0  0  0  0  0  0  0  0  0  0
    1.6144   -2.7291   -2.6468 H   0  0  0  0  0  0  0  0  0  0  0  0
    2.5395   -3.3795   -1.2521 H   0  0  0  0  0  0  0  0  0  0  0  0
    1.4329   -1.9219    0.3077 H   0  0  0  0  0  0  0  0  0  0  0  0
    0.0970   -2.3014   -0.8222 H   0  0  0  0  0  0  0  0  0  0  0  0
   -0.3439   -0.9255    1.1786 H   0  0  0  0  0  0  0  0  0  0  0  0
   -0.3745    0.7694    1.7216 H   0  0  0  0  0  0  0  0  0  0  0  0
   -2.4044   -0.2737   -1.7862 H   0  0  0  0  0  0  0  0  0  0  0  0
   -1.1972   -1.3998   -1.1206 H   0  0  0  0  0  0  0  0  0  0  0  0
   -4.6342   -0.1381   -0.8354 H   0  0  0  0  0  0  0  0  0  0  0  0
   -6.4110   -1.3123    0.4004 H   0  0  0  0  0  0  0  0  0  0  0  0
   -5.8534   -3.2488    1.8153 H   0  0  0  0  0  0  0  0  0  0  0  0
   -3.5190   -4.0118    1.9936 H   0  0  0  0  0  0  0  0  0  0  0  0
   -1.7428   -2.8405    0.7541 H   0  0  0  0  0  0  0  0  0  0  0  0
   -3.4842    1.1185   -1.5524 H   0  0  0  0  0  0  0  0  0  0  0  0
   -4.4689    3.3720   -1.6457 H   0  0  0  0  0  0  0  0  0  0  0  0
   -3.5528    5.1769   -0.2458 H   0  0  0  0  0  0  0  0  0  0  0  0
   -1.6503    4.7346    1.2514 H   0  0  0  0  0  0  0  0  0  0  0  0
   -0.6616    2.4834    1.3567 H   0  0  0  0  0  0  0  0  0  0  0  0
    4.2341    0.5838    2.2358 H   0  0  0  0  0  0  0  0  0  0  0  0
    4.5247   -0.9824    1.4416 H   0  0  0  0  0  0  0  0  0  0  0  0
    5.6806    1.6888    0.5237 H   0  0  0  0  0  0  0  0  0  0  0  0
    6.9777   -0.6728    1.9579 H   0  0  0  0  0  0  0  0  0  0  0  0
    7.8282    0.7702    1.3558 H   0  0  0  0  0  0  0  0  0  0  0  0
    6.6438    0.9214    2.6759 H   0  0  0  0  0  0  0  0  0  0  0  0
    6.1138   -1.1924   -0.3813 H   0  0  0  0  0  0  0  0  0  0  0  0
    5.3670    0.1182   -1.3263 H   0  0  0  0  0  0  0  0  0  0  0  0
    7.0973    0.1919   -0.9151 H   0  0  0  0  0  0  0  0  0  0  0  0
  1  2  1  0  0  0  0
  2  3  1  0  0  0  0
  3  4  1  0  0  0  0
  4  5  1  0  0  0  0
  5  6  1  0  0  0  0
  6  7  1  0  0  0  0
  7  8  1  0  0  0  0
  4  8  1  0  0  0  0
  3  9  1  0  0  0  0
  9 10  1  0  0  0  0
 10 11  1  0  0  0  0
 11 12  1  0  0  0  0
 12 13  1  0  0  0  0
 13 14  2  0  0  0  0
 14 15  1  0  0  0  0
 15 16  2  0  0  0  0
 16 17  1  0  0  0  0
 12 17  2  0  0  0  0
 10 18  1  0  0  0  0
 18 19  1  0  0  0  0
 19 20  2  0  0  0  0
 20 21  1  0  0  0  0
 21 22  2  0  0  0  0
 22 23  1  0  0  0  0
 18 23  2  0  0  0  0
  1 24  1  0  0  0  0
 24 25  1  0  0  0  0
 25 26  1  0  0  0  0
 25 27  1  0  0  0  0
  2 28  1  0  0  0  0
  2 29  1  0  0  0  0
  3 30  1  0  0  0  0
  5 31  1  0  0  0  0
  5 32  1  0  0  0  0
  6 33  1  0  0  0  0
  6 34  1  0  0  0  0
  7 35  1  0  0  0  0
  7 36  1  0  0  0  0
  8 37  1  0  0  0  0
  8 38  1  0  0  0  0
  9 39  1  0  0  0  0
  9 40  1  0  0  0  0
 11 41  1  0  0  0  0
 11 42  1  0  0  0  0
 13 43  1  0  0  0  0
 14 44  1  0  0  0  0
 15 45  1  0  0  0  0
 16 46  1  0  0  0  0
 17 47  1  0  0  0  0
 19 48  1  0  0  0  0
 20 49  1  0  0  0  0
 21 50  1  0  0  0  0
 22 51  1  0  0  0  0
 23 52  1  0  0  0  0
 24 53  1  0  0  0  0
 24 54  1  0  0  0  0
 25 55  1  0  0  0  0
 26 56  1  0  0  0  0
 26 57  1  0  0  0  0
 26 58  1  0  0  0  0
 27 59  1  0  0  0  0
 27 60  1  0  0  0  0
 27 61  1  0  0  0  0
M  END
> <UNIQUE_SMILES>
CC(C)COCC(CN(CC1=CC=CC=C1)C2=CC=CC=C2)N3CCCC3

> <USER_SUPPLIED_SMILES>
O(CC(N1CCCC1)CN(Cc2ccccc2)c3ccccc3)CC(C)C

$$$$
C20H36N2O3S
APtclcactv12272117193D 0   0.00000     0.00000    16
 
 62 62  0  0  0  0  0  0  0  0999 V2000
   -6.3353    1.6765    0.7951 S   0  0  0  0  0  0  0  0  0  0  0  0
   -7.6510    2.1618    0.5657 O   0  0  0  0  0  0  0  0  0  0  0  0
   -6.0202    0.8429    1.9019 O   0  0  0  0  0  0  0  0  0  0  0  0
   -6.0813    0.6775   -0.5009 N   0  0  0  0  0  0  0  0  0  0  0  0
   -4.8606    0.0135   -0.6423 C   0  0  0  0  0  0  0  0  0  0  0  0
   -4.5629   -1.0757    0.1668 C   0  0  0  0  0  0  0  0  0  0  0  0
   -3.3552   -1.7302    0.0241 C   0  0  0  0  0  0  0  0  0  0  0  0
   -2.4428   -1.3024   -0.9229 C   0  0  0  0  0  0  0  0  0  0  0  0
   -1.1261   -2.0194   -1.0760 C   0  0  0  0  0  0  0  0  0  0  0  0
   -0.7433   -2.0236   -2.4528 O   0  0  0  0  0  0  0  0  0  0  0  0
   -0.0557   -1.3019   -0.2512 C   0  0  0  0  0  0  0  0  0  0  0  0
    1.2494   -2.0985   -0.3060 C   0  0  0  0  0  0  0  0  0  0  0  0
    2.3198   -1.3810    0.5188 C   0  0  0  0  0  0  0  0  0  0  0  0
    3.5730   -2.1458    0.4661 N   0  0  0  0  0  0  0  0  0  0  0  0
    4.6118   -1.2956    1.0628 C   0  0  0  0  0  0  0  0  0  0  0  0
    5.0208   -0.2123    0.0628 C   0  0  0  0  0  0  0  0  0  0  0  0
    6.1980    0.5852    0.6278 C   0  0  0  0  0  0  0  0  0  0  0  0
    6.6069    1.6685   -0.3722 C   0  0  0  0  0  0  0  0  0  0  0  0
    7.7842    2.4659    0.1927 C   0  0  0  0  0  0  0  0  0  0  0  0
    8.1931    3.5492   -0.8073 C   0  0  0  0  0  0  0  0  0  0  0  0
    9.3703    4.3466   -0.2423 C   0  0  0  0  0  0  0  0  0  0  0  0
    3.4030   -3.2968    1.3629 C   0  0  0  0  0  0  0  0  0  0  0  0
    4.4923   -4.3322    1.0758 C   0  0  0  0  0  0  0  0  0  0  0  0
   -2.7360   -0.2185   -1.7299 C   0  0  0  0  0  0  0  0  0  0  0  0
   -3.9440    0.4373   -1.5961 C   0  0  0  0  0  0  0  0  0  0  0  0
   -5.0930    2.9779    0.5635 C   0  0  0  0  0  0  0  0  0  0  0  0
   -6.7803    0.5534   -1.1620 H   0  0  0  0  0  0  0  0  0  0  0  0
   -5.2749   -1.4101    0.9069 H   0  0  0  0  0  0  0  0  0  0  0  0
   -3.1229   -2.5769    0.6531 H   0  0  0  0  0  0  0  0  0  0  0  0
   -1.2284   -3.0460   -0.7242 H   0  0  0  0  0  0  0  0  0  0  0  0
   -0.6640   -1.0987   -2.7236 H   0  0  0  0  0  0  0  0  0  0  0  0
    0.1097   -0.3048   -0.6593 H   0  0  0  0  0  0  0  0  0  0  0  0
   -0.3884   -1.2204    0.7836 H   0  0  0  0  0  0  0  0  0  0  0  0
    1.0840   -3.0956    0.1021 H   0  0  0  0  0  0  0  0  0  0  0  0
    1.5821   -2.1800   -1.3408 H   0  0  0  0  0  0  0  0  0  0  0  0
    2.4853   -0.3839    0.1107 H   0  0  0  0  0  0  0  0  0  0  0  0
    1.9872   -1.2994    1.5536 H   0  0  0  0  0  0  0  0  0  0  0  0
    4.2229   -0.8273    1.9670 H   0  0  0  0  0  0  0  0  0  0  0  0
    5.4800   -1.9048    1.3138 H   0  0  0  0  0  0  0  0  0  0  0  0
    5.3155   -0.6783   -0.8775 H   0  0  0  0  0  0  0  0  0  0  0  0
    4.1787    0.4575   -0.1119 H   0  0  0  0  0  0  0  0  0  0  0  0
    5.9032    1.0512    1.5680 H   0  0  0  0  0  0  0  0  0  0  0  0
    7.0400   -0.0846    0.8025 H   0  0  0  0  0  0  0  0  0  0  0  0
    6.9017    1.2024   -1.3125 H   0  0  0  0  0  0  0  0  0  0  0  0
    5.7649    2.3382   -0.5470 H   0  0  0  0  0  0  0  0  0  0  0  0
    7.4894    2.9319    1.1330 H   0  0  0  0  0  0  0  0  0  0  0  0
    8.6262    1.7961    0.3675 H   0  0  0  0  0  0  0  0  0  0  0  0
    8.4879    3.0832   -1.7475 H   0  0  0  0  0  0  0  0  0  0  0  0
    7.3511    4.2190   -0.9820 H   0  0  0  0  0  0  0  0  0  0  0  0
    9.6617    5.1184   -0.9547 H   0  0  0  0  0  0  0  0  0  0  0  0
    9.0756    4.8127    0.6979 H   0  0  0  0  0  0  0  0  0  0  0  0
   10.2124    3.6769   -0.0676 H   0  0  0  0  0  0  0  0  0  0  0  0
    3.4806   -2.9653    2.3983 H   0  0  0  0  0  0  0  0  0  0  0  0
    2.4232   -3.7448    1.1973 H   0  0  0  0  0  0  0  0  0  0  0  0
    4.3076   -5.2278    1.6689 H   0  0  0  0  0  0  0  0  0  0  0  0
    4.4795   -4.5888    0.0165 H   0  0  0  0  0  0  0  0  0  0  0  0
    5.4658   -3.9175    1.3375 H   0  0  0  0  0  0  0  0  0  0  0  0
   -2.0212    0.1131   -2.4685 H   0  0  0  0  0  0  0  0  0  0  0  0
   -4.1725    1.2836   -2.2270 H   0  0  0  0  0  0  0  0  0  0  0  0
   -5.2500    3.7654    1.3005 H   0  0  0  0  0  0  0  0  0  0  0  0
   -4.0962    2.5553    0.6899 H   0  0  0  0  0  0  0  0  0  0  0  0
   -5.1863    3.3949   -0.4393 H   0  0  0  0  0  0  0  0  0  0  0  0
  1  2  2  0  0  0  0
  1  3  2  0  0  0  0
  1  4  1  0  0  0  0
  4  5  1  0  0  0  0
  5  6  1  0  0  0  0
  6  7  2  0  0  0  0
  7  8  1  0  0  0  0
  8  9  1  0  0  0  0
  9 10  1  0  0  0  0
  9 11  1  0  0  0  0
 11 12  1  0  0  0  0
 12 13  1  0  0  0  0
 13 14  1  0  0  0  0
 14 15  1  0  0  0  0
 15 16  1  0  0  0  0
 16 17  1  0  0  0  0
 17 18  1  0  0  0  0
 18 19  1  0  0  0  0
 19 20  1  0  0  0  0
 20 21  1  0  0  0  0
 14 22  1  0  0  0  0
 22 23  1  0  0  0  0
  8 24  2  0  0  0  0
 24 25  1  0  0  0  0
  5 25  2  0  0  0  0
  1 26  1  0  0  0  0
  4 27  1  0  0  0  0
  6 28  1  0  0  0  0
  7 29  1  0  0  0  0
  9 30  1  0  0  0  0
 10 31  1  0  0  0  0
 11 32  1  0  0  0  0
 11 33  1  0  0  0  0
 12 34  1  0  0  0  0
 12 35  1  0  0  0  0
 13 36  1  0  0  0  0
 13 37  1  0  0  0  0
 15 38  1  0  0  0  0
 15 39  1  0  0  0  0
 16 40  1  0  0  0  0
 16 41  1  0  0  0  0
 17 42  1  0  0  0  0
 17 43  1  0  0  0  0
 18 44  1  0  0  0  0
 18 45  1  0  0  0  0
 19 46  1  0  0  0  0
 19 47  1  0  0  0  0
 20 48  1  0  0  0  0
 20 49  1  0  0  0  0
 21 50  1  0  0  0  0
 21 51  1  0  0  0  0
 21 52  1  0  0  0  0
 22 53  1  0  0  0  0
 22 54  1  0  0  0  0
 23 55  1  0  0  0  0
 23 56  1  0  0  0  0
 23 57  1  0  0  0  0
 24 58  1  0  0  0  0
 25 59  1  0  0  0  0
 26 60  1  0  0  0  0
 26 61  1  0  0  0  0
 26 62  1  0  0  0  0
M  END
> <UNIQUE_SMILES>
CCCCCCCN(CC)CCCC(O)C1=CC=C(N[S](C)(=O)=O)C=C1

> <USER_SUPPLIED_SMILES>
S(=O)(=O)(Nc1ccc(C(O)CCCN(CCCCCCC)CC)cc1)C

$$$$
C21H23ClFNO2
APtclcactv12272117193D 0   0.00000     0.00000    17
 
 49 51  0  0  0  0  0  0  0  0999 V2000
    6.6269    1.6111   -0.1094 C   0  0  0  0  0  0  0  0  0  0  0  0
    5.7814    0.5062    0.0411 C   0  0  0  0  0  0  0  0  0  0  0  0
    6.3292   -0.7774    0.1449 C   0  0  0  0  0  0  0  0  0  0  0  0
    7.6956   -0.9455    0.0984 C   0  0  0  0  0  0  0  0  0  0  0  0
    8.5281    0.1540   -0.0509 C   0  0  0  0  0  0  0  0  0  0  0  0
    7.9916    1.4291   -0.1544 C   0  0  0  0  0  0  0  0  0  0  0  0
    9.8674   -0.0177   -0.0958 F   0  0  0  0  0  0  0  0  0  0  0  0
    4.3240    0.6931    0.0905 C   0  0  0  0  0  0  0  0  0  0  0  0
    3.8521    1.8066    0.0006 O   0  0  0  0  0  0  0  0  0  0  0  0
    3.4166   -0.4991    0.2526 C   0  0  0  0  0  0  0  0  0  0  0  0
    1.9598   -0.0319    0.2738 C   0  0  0  0  0  0  0  0  0  0  0  0
    1.0384   -1.2423    0.4384 C   0  0  0  0  0  0  0  0  0  0  0  0
   -0.3491   -0.7844    0.5904 N   0  0  0  0  0  0  0  0  0  0  0  0
   -1.1859   -1.9876    0.6497 C   0  0  0  0  0  0  0  0  0  0  0  0
   -2.6552   -1.5891    0.8016 C   0  0  0  0  0  0  0  0  0  0  0  0
   -3.0823   -0.7652   -0.4172 C   0  0  0  0  0  0  0  0  0  0  0  0
   -2.1378    0.4319   -0.5635 C   0  0  0  0  0  0  0  0  0  0  0  0
   -0.6955   -0.0721   -0.6441 C   0  0  0  0  0  0  0  0  0  0  0  0
   -3.0121   -1.5764   -1.5915 O   0  0  0  0  0  0  0  0  0  0  0  0
   -4.4938   -0.2737   -0.2244 C   0  0  0  0  0  0  0  0  0  0  0  0
   -5.3112   -0.0727   -1.3210 C   0  0  0  0  0  0  0  0  0  0  0  0
   -6.6059    0.3781   -1.1449 C   0  0  0  0  0  0  0  0  0  0  0  0
   -7.0837    0.6282    0.1292 C   0  0  0  0  0  0  0  0  0  0  0  0
   -6.2651    0.4269    1.2263 C   0  0  0  0  0  0  0  0  0  0  0  0
   -4.9725   -0.0293    1.0493 C   0  0  0  0  0  0  0  0  0  0  0  0
   -8.7094    1.1950    0.3512 Cl  0  0  0  0  0  0  0  0  0  0  0  0
    6.2103    2.6038   -0.1945 H   0  0  0  0  0  0  0  0  0  0  0  0
    5.6822   -1.6342    0.2616 H   0  0  0  0  0  0  0  0  0  0  0  0
    8.1197   -1.9355    0.1788 H   0  0  0  0  0  0  0  0  0  0  0  0
    8.6453    2.2809   -0.2702 H   0  0  0  0  0  0  0  0  0  0  0  0
    3.5659   -1.1855   -0.5808 H   0  0  0  0  0  0  0  0  0  0  0  0
    3.6486   -1.0077    1.1883 H   0  0  0  0  0  0  0  0  0  0  0  0
    1.8104    0.6545    1.1072 H   0  0  0  0  0  0  0  0  0  0  0  0
    1.7277    0.4767   -0.6619 H   0  0  0  0  0  0  0  0  0  0  0  0
    1.1160   -1.8804   -0.4419 H   0  0  0  0  0  0  0  0  0  0  0  0
    1.3339   -1.8062    1.3232 H   0  0  0  0  0  0  0  0  0  0  0  0
   -1.0593   -2.5627   -0.2675 H   0  0  0  0  0  0  0  0  0  0  0  0
   -0.8855   -2.5963    1.5025 H   0  0  0  0  0  0  0  0  0  0  0  0
   -3.2708   -2.4862    0.8685 H   0  0  0  0  0  0  0  0  0  0  0  0
   -2.7793   -0.9931    1.7057 H   0  0  0  0  0  0  0  0  0  0  0  0
   -2.3833    0.9803   -1.4729 H   0  0  0  0  0  0  0  0  0  0  0  0
   -2.2463    1.0890    0.2994 H   0  0  0  0  0  0  0  0  0  0  0  0
   -0.0223    0.7752   -0.7748 H   0  0  0  0  0  0  0  0  0  0  0  0
   -0.5948   -0.7482   -1.4931 H   0  0  0  0  0  0  0  0  0  0  0  0
   -3.2884   -1.0199   -2.3325 H   0  0  0  0  0  0  0  0  0  0  0  0
   -4.9380   -0.2676   -2.3155 H   0  0  0  0  0  0  0  0  0  0  0  0
   -7.2443    0.5354   -2.0016 H   0  0  0  0  0  0  0  0  0  0  0  0
   -6.6375    0.6219    2.2211 H   0  0  0  0  0  0  0  0  0  0  0  0
   -4.3334   -0.1865    1.9056 H   0  0  0  0  0  0  0  0  0  0  0  0
  1  2  1  0  0  0  0
  2  3  2  0  0  0  0
  3  4  1  0  0  0  0
  4  5  2  0  0  0  0
  5  6  1  0  0  0  0
  1  6  2  0  0  0  0
  5  7  1  0  0  0  0
  2  8  1  0  0  0  0
  8  9  2  0  0  0  0
  8 10  1  0  0  0  0
 10 11  1  0  0  0  0
 11 12  1  0  0  0  0
 12 13  1  0  0  0  0
 13 14  1  0  0  0  0
 14 15  1  0  0  0  0
 15 16  1  0  0  0  0
 16 17  1  0  0  0  0
 17 18  1  0  0  0  0
 13 18  1  0  0  0  0
 16 19  1  0  0  0  0
 16 20  1  0  0  0  0
 20 21  1  0  0  0  0
 21 22  2  0  0  0  0
 22 23  1  0  0  0  0
 23 24  2  0  0  0  0
 24 25  1  0  0  0  0
 20 25  2  0  0  0  0
 23 26  1  0  0  0  0
  1 27  1  0  0  0  0
  3 28  1  0  0  0  0
  4 29  1  0  0  0  0
  6 30  1  0  0  0  0
 10 31  1  0  0  0  0
 10 32  1  0  0  0  0
 11 33  1  0  0  0  0
 11 34  1  0  0  0  0
 12 35  1  0  0  0  0
 12 36  1  0  0  0  0
 14 37  1  0  0  0  0
 14 38  1  0  0  0  0
 15 39  1  0  0  0  0
 15 40  1  0  0  0  0
 17 41  1  0  0  0  0
 17 42  1  0  0  0  0
 18 43  1  0  0  0  0
 18 44  1  0  0  0  0
 19 45  1  0  0  0  0
 21 46  1  0  0  0  0
 22 47  1  0  0  0  0
 24 48  1  0  0  0  0
 25 49  1  0  0  0  0
M  END
> <UNIQUE_SMILES>
OC1(CCN(CCCC(=O)C2=CC=C(F)C=C2)CC1)C3=CC=C(Cl)C=C3

> <USER_SUPPLIED_SMILES>
c1c(ccc(c1)F)C(=O)CCCN2CCC(CC2)(O)c3ccc(cc3)Cl

$$$$
C25H29N3O4S
APtclcactv12272117193D 0   0.00000     0.00000    18
 
 62 66  0  0  0  0  0  0  0  0999 V2000
   -0.6597   -2.2313   -0.3220 C   0  0  0  0  0  0  0  0  0  0  0  0
   -0.2986   -1.7130    1.0726 C   0  0  0  0  0  0  0  0  0  0  0  0
    0.8840   -0.7487    0.9625 C   0  0  0  0  0  0  0  0  0  0  0  0
    2.0486   -1.4516    0.4141 N   0  0  0  0  0  0  0  0  0  0  0  0
    1.7189   -1.8327   -0.9634 C   0  0  0  0  0  0  0  0  0  0  0  0
    0.5839   -2.8587   -0.9590 C   0  0  0  0  0  0  0  0  0  0  0  0
    3.1355   -0.4669    0.3310 C   0  0  0  0  0  0  0  0  0  0  0  0
    3.5905   -0.0795    1.7431 C   0  0  0  0  0  0  0  0  0  0  0  0
    4.5402    1.1114    1.6331 C   0  0  0  0  0  0  0  0  0  0  0  0
    5.6270    0.8319    0.6277 C   0  0  0  0  0  0  0  0  0  0  0  0
    5.5267   -0.1703   -0.3140 C   0  0  0  0  0  0  0  0  0  0  0  0
    4.3254   -1.0751   -0.4082 C   0  0  0  0  0  0  0  0  0  0  0  0
    6.5605   -0.3758   -1.2207 C   0  0  0  0  0  0  0  0  0  0  0  0
    7.6914    0.4084   -1.1887 C   0  0  0  0  0  0  0  0  0  0  0  0
    7.8011    1.4223   -0.2351 C   0  0  0  0  0  0  0  0  0  0  0  0
    6.7614    1.6270    0.6700 C   0  0  0  0  0  0  0  0  0  0  0  0
    8.9720    2.2453   -0.1878 C   0  0  0  0  0  0  0  0  0  0  0  0
    9.9009    2.8982   -0.1503 N   0  0  0  0  0  0  0  0  0  0  0  0
   -1.7545   -3.2988   -0.1978 C   0  0  0  0  0  0  0  0  0  0  0  0
   -2.8666   -2.7097    0.6776 C   0  0  0  0  0  0  0  0  0  0  0  0
   -3.1147   -1.2827    0.2491 C   0  0  0  0  0  0  0  0  0  0  0  0
   -2.2508   -0.6150   -0.5976 C   0  0  0  0  0  0  0  0  0  0  0  0
   -1.1339   -1.1667   -1.1304 O   0  0  0  0  0  0  0  0  0  0  0  0
   -2.5283    0.7082   -0.9469 C   0  0  0  0  0  0  0  0  0  0  0  0
   -3.6520    1.3425   -0.4648 C   0  0  0  0  0  0  0  0  0  0  0  0
   -4.5220    0.6644    0.3787 C   0  0  0  0  0  0  0  0  0  0  0  0
   -4.2475   -0.6482    0.7321 C   0  0  0  0  0  0  0  0  0  0  0  0
   -5.6676    1.3012    0.8690 N   0  0  0  0  0  0  0  0  0  0  0  0
   -6.6191    2.1941   -0.1507 S   0  0  0  0  0  0  0  0  0  0  0  0
   -7.6345    2.6840    0.7143 O   0  0  0  0  0  0  0  0  0  0  0  0
   -5.6824    3.0573   -0.7805 O   0  0  0  0  0  0  0  0  0  0  0  0
   -7.2657    0.9532   -1.3051 C   0  0  0  0  0  0  0  0  0  0  0  0
   -4.0624   -3.4746    0.5127 O   0  0  0  0  0  0  0  0  0  0  0  0
   -1.1550   -1.1914    1.5000 H   0  0  0  0  0  0  0  0  0  0  0  0
   -0.0258   -2.5517    1.7132 H   0  0  0  0  0  0  0  0  0  0  0  0
    0.6170    0.0785    0.3047 H   0  0  0  0  0  0  0  0  0  0  0  0
    1.1278   -0.3600    1.9512 H   0  0  0  0  0  0  0  0  0  0  0  0
    1.4061   -0.9486   -1.5191 H   0  0  0  0  0  0  0  0  0  0  0  0
    2.5980   -2.2668   -1.4397 H   0  0  0  0  0  0  0  0  0  0  0  0
    0.8861   -3.7334   -0.3832 H   0  0  0  0  0  0  0  0  0  0  0  0
    0.3579   -3.1560   -1.9830 H   0  0  0  0  0  0  0  0  0  0  0  0
    2.7877    0.4199   -0.1988 H   0  0  0  0  0  0  0  0  0  0  0  0
    2.7247    0.1957    2.3452 H   0  0  0  0  0  0  0  0  0  0  0  0
    4.1078   -0.9201    2.2056 H   0  0  0  0  0  0  0  0  0  0  0  0
    3.9784    1.9913    1.3197 H   0  0  0  0  0  0  0  0  0  0  0  0
    4.9918    1.3020    2.6067 H   0  0  0  0  0  0  0  0  0  0  0  0
    4.5677   -2.0414    0.0342 H   0  0  0  0  0  0  0  0  0  0  0  0
    4.0631   -1.2163   -1.4567 H   0  0  0  0  0  0  0  0  0  0  0  0
    6.4754   -1.1600   -1.9584 H   0  0  0  0  0  0  0  0  0  0  0  0
    8.4892    0.2402   -1.8969 H   0  0  0  0  0  0  0  0  0  0  0  0
    6.8405    2.4099    1.4097 H   0  0  0  0  0  0  0  0  0  0  0  0
   -2.1487   -3.5425   -1.1844 H   0  0  0  0  0  0  0  0  0  0  0  0
   -1.3478   -4.1944    0.2718 H   0  0  0  0  0  0  0  0  0  0  0  0
   -2.5583   -2.7293    1.7229 H   0  0  0  0  0  0  0  0  0  0  0  0
   -1.8544    1.2403   -1.6019 H   0  0  0  0  0  0  0  0  0  0  0  0
   -3.8560    2.3661   -0.7422 H   0  0  0  0  0  0  0  0  0  0  0  0
   -4.9210   -1.1790    1.3886 H   0  0  0  0  0  0  0  0  0  0  0  0
   -5.9043    1.2196    1.8061 H   0  0  0  0  0  0  0  0  0  0  0  0
   -7.8335    0.2043   -0.7529 H   0  0  0  0  0  0  0  0  0  0  0  0
   -7.9160    1.4382   -2.0331 H   0  0  0  0  0  0  0  0  0  0  0  0
   -6.4363    0.4715   -1.8228 H   0  0  0  0  0  0  0  0  0  0  0  0
   -4.7333   -3.0701    1.0797 H   0  0  0  0  0  0  0  0  0  0  0  0
  1  2  1  0  0  0  0
  2  3  1  0  0  0  0
  3  4  1  0  0  0  0
  4  5  1  0  0  0  0
  5  6  1  0  0  0  0
  1  6  1  0  0  0  0
  4  7  1  0  0  0  0
  7  8  1  0  0  0  0
  8  9  1  0  0  0  0
  9 10  1  0  0  0  0
 10 11  1  0  0  0  0
 11 12  1  0  0  0  0
  7 12  1  0  0  0  0
 11 13  2  0  0  0  0
 13 14  1  0  0  0  0
 14 15  2  0  0  0  0
 15 16  1  0  0  0  0
 10 16  2  0  0  0  0
 15 17  1  0  0  0  0
 17 18  3  0  0  0  0
  1 19  1  0  0  0  0
 19 20  1  0  0  0  0
 20 21  1  0  0  0  0
 21 22  1  0  0  0  0
 22 23  1  0  0  0  0
  1 23  1  0  0  0  0
 22 24  2  0  0  0  0
 24 25  1  0  0  0  0
 25 26  2  0  0  0  0
 26 27  1  0  0  0  0
 21 27  2  0  0  0  0
 26 28  1  0  0  0  0
 28 29  1  0  0  0  0
 29 30  2  0  0  0  0
 29 31  2  0  0  0  0
 29 32  1  0  0  0  0
 20 33  1  0  0  0  0
  2 34  1  0  0  0  0
  2 35  1  0  0  0  0
  3 36  1  0  0  0  0
  3 37  1  0  0  0  0
  5 38  1  0  0  0  0
  5 39  1  0  0  0  0
  6 40  1  0  0  0  0
  6 41  1  0  0  0  0
  7 42  1  0  0  0  0
  8 43  1  0  0  0  0
  8 44  1  0  0  0  0
  9 45  1  0  0  0  0
  9 46  1  0  0  0  0
 12 47  1  0  0  0  0
 12 48  1  0  0  0  0
 13 49  1  0  0  0  0
 14 50  1  0  0  0  0
 16 51  1  0  0  0  0
 19 52  1  0  0  0  0
 19 53  1  0  0  0  0
 20 54  1  0  0  0  0
 24 55  1  0  0  0  0
 25 56  1  0  0  0  0
 27 57  1  0  0  0  0
 28 58  1  0  0  0  0
 32 59  1  0  0  0  0
 32 60  1  0  0  0  0
 32 61  1  0  0  0  0
 33 62  1  0  0  0  0
M  END
> <UNIQUE_SMILES>
C[S](=O)(=O)NC1=CC=C2OC3(CCN(CC3)C4CCC5=CC(=CC=C5C4)C#N)CC(O)C2=C1

> <USER_SUPPLIED_SMILES>
C14(CCN(CC1)C2CCc3c(C2)ccc(c3)C#N)CC(c5c(O4)ccc(c5)NS(=O)(=O)C)O

$$$$
C23H29ClFN3O4
APtclcactv12272117193D 0   0.00000     0.00000    19
 
 61 63  0  0  0  0  0  0  0  0999 V2000
    4.7742   -0.6162    0.0833 C   0  0  0  0  0  0  0  0  0  0  0  0
    3.3717   -0.7548    0.5092 C   0  0  0  0  0  0  0  0  0  0  0  0
    2.9934   -1.7870    1.0298 O   0  0  0  0  0  0  0  0  0  0  0  0
    2.5071    0.2620    0.3223 N   0  0  0  0  0  0  0  0  0  0  0  0
    1.1115    0.1241    0.7461 C   0  0  0  0  0  0  0  0  0  0  0  0
    0.5179    1.5103    1.0153 C   0  0  0  0  0  0  0  0  0  0  0  0
   -0.9688    1.3654    1.3461 C   0  0  0  0  0  0  0  0  0  0  0  0
   -1.6759    0.7748    0.2047 N   0  0  0  0  0  0  0  0  0  0  0  0
   -1.1722   -0.5928    0.0393 C   0  0  0  0  0  0  0  0  0  0  0  0
    0.3033   -0.5558   -0.3635 C   0  0  0  0  0  0  0  0  0  0  0  0
   -3.0873    0.6604    0.5957 C   0  0  0  0  0  0  0  0  0  0  0  0
   -3.9266    0.2857   -0.6275 C   0  0  0  0  0  0  0  0  0  0  0  0
   -5.3966    0.1666   -0.2202 C   0  0  0  0  0  0  0  0  0  0  0  0
   -6.1805   -0.1833   -1.3626 O   0  0  0  0  0  0  0  0  0  0  0  0
   -7.4698   -0.2743   -0.9415 C   0  0  0  0  0  0  0  0  0  0  0  0
   -8.4725   -0.6037   -1.8416 C   0  0  0  0  0  0  0  0  0  0  0  0
   -9.7823   -0.6963   -1.4122 C   0  0  0  0  0  0  0  0  0  0  0  0
  -10.0944   -0.4601   -0.0841 C   0  0  0  0  0  0  0  0  0  0  0  0
   -9.0946   -0.1312    0.8154 C   0  0  0  0  0  0  0  0  0  0  0  0
   -7.7832   -0.0435    0.3899 C   0  0  0  0  0  0  0  0  0  0  0  0
  -11.3758   -0.5501    0.3343 F   0  0  0  0  0  0  0  0  0  0  0  0
    1.1959    2.1139    2.1189 O   0  0  0  0  0  0  0  0  0  0  0  0
    1.1588    3.5262    1.9040 C   0  0  0  0  0  0  0  0  0  0  0  0
    5.2120    0.5701   -0.5158 C   0  0  0  0  0  0  0  0  0  0  0  0
    6.5127    0.6982   -0.9106 C   0  0  0  0  0  0  0  0  0  0  0  0
    7.0487    2.1730   -1.6533 Cl  0  0  0  0  0  0  0  0  0  0  0  0
    7.4131   -0.3497   -0.7199 C   0  0  0  0  0  0  0  0  0  0  0  0
    6.9932   -1.5331   -0.1262 C   0  0  0  0  0  0  0  0  0  0  0  0
    5.6780   -1.6714    0.2821 C   0  0  0  0  0  0  0  0  0  0  0  0
    5.2622   -2.8248    0.8630 O   0  0  0  0  0  0  0  0  0  0  0  0
    6.3956   -3.6937    0.9135 C   0  0  0  0  0  0  0  0  0  0  0  0
    8.7363   -0.2094   -1.1262 N   0  0  0  0  0  0  0  0  0  0  0  0
    2.8088    1.0851   -0.0929 H   0  0  0  0  0  0  0  0  0  0  0  0
    1.0637   -0.4761    1.6547 H   0  0  0  0  0  0  0  0  0  0  0  0
    0.6346    2.1347    0.1295 H   0  0  0  0  0  0  0  0  0  0  0  0
   -1.0851    0.7209    2.2174 H   0  0  0  0  0  0  0  0  0  0  0  0
   -1.3890    2.3472    1.5640 H   0  0  0  0  0  0  0  0  0  0  0  0
   -1.2777   -1.1341    0.9795 H   0  0  0  0  0  0  0  0  0  0  0  0
   -1.7469   -1.0995   -0.7360 H   0  0  0  0  0  0  0  0  0  0  0  0
    0.4136    0.0062   -1.2909 H   0  0  0  0  0  0  0  0  0  0  0  0
    0.6671   -1.5731   -0.5078 H   0  0  0  0  0  0  0  0  0  0  0  0
   -3.1916   -0.1115    1.3582 H   0  0  0  0  0  0  0  0  0  0  0  0
   -3.4322    1.6143    0.9947 H   0  0  0  0  0  0  0  0  0  0  0  0
   -3.8222    1.0576   -1.3900 H   0  0  0  0  0  0  0  0  0  0  0  0
   -3.5816   -0.6682   -1.0264 H   0  0  0  0  0  0  0  0  0  0  0  0
   -5.5009   -0.6052    0.5423 H   0  0  0  0  0  0  0  0  0  0  0  0
   -5.7415    1.1205    0.1788 H   0  0  0  0  0  0  0  0  0  0  0  0
   -8.2294   -0.7873   -2.8777 H   0  0  0  0  0  0  0  0  0  0  0  0
  -10.5632   -0.9527   -2.1128 H   0  0  0  0  0  0  0  0  0  0  0  0
   -9.3395    0.0531    1.8510 H   0  0  0  0  0  0  0  0  0  0  0  0
   -7.0034    0.2126    1.0918 H   0  0  0  0  0  0  0  0  0  0  0  0
    1.6668    4.0321    2.7251 H   0  0  0  0  0  0  0  0  0  0  0  0
    1.6593    3.7642    0.9654 H   0  0  0  0  0  0  0  0  0  0  0  0
    0.1221    3.8596    1.8576 H   0  0  0  0  0  0  0  0  0  0  0  0
    4.5199    1.3854   -0.6665 H   0  0  0  0  0  0  0  0  0  0  0  0
    7.6928   -2.3428    0.0198 H   0  0  0  0  0  0  0  0  0  0  0  0
    6.1087   -4.6386    1.3750 H   0  0  0  0  0  0  0  0  0  0  0  0
    6.7571   -3.8785   -0.0980 H   0  0  0  0  0  0  0  0  0  0  0  0
    7.1853   -3.2269    1.5021 H   0  0  0  0  0  0  0  0  0  0  0  0
    9.0312    0.6162   -1.5413 H   0  0  0  0  0  0  0  0  0  0  0  0
    9.3639   -0.9371   -0.9943 H   0  0  0  0  0  0  0  0  0  0  0  0
  1  2  1  0  0  0  0
  2  3  2  0  0  0  0
  2  4  1  0  0  0  0
  4  5  1  0  0  0  0
  5  6  1  0  0  0  0
  6  7  1  0  0  0  0
  7  8  1  0  0  0  0
  8  9  1  0  0  0  0
  9 10  1  0  0  0  0
  5 10  1  0  0  0  0
  8 11  1  0  0  0  0
 11 12  1  0  0  0  0
 12 13  1  0  0  0  0
 13 14  1  0  0  0  0
 14 15  1  0  0  0  0
 15 16  1  0  0  0  0
 16 17  2  0  0  0  0
 17 18  1  0  0  0  0
 18 19  2  0  0  0  0
 19 20  1  0  0  0  0
 15 20  2  0  0  0  0
 18 21  1  0  0  0  0
  6 22  1  0  0  0  0
 22 23  1  0  0  0  0
  1 24  1  0  0  0  0
 24 25  2  0  0  0  0
 25 26  1  0  0  0  0
 25 27  1  0  0  0  0
 27 28  2  0  0  0  0
 28 29  1  0  0  0  0
  1 29  2  0  0  0  0
 29 30  1  0  0  0  0
 30 31  1  0  0  0  0
 27 32  1  0  0  0  0
  4 33  1  0  0  0  0
  5 34  1  0  0  0  0
  6 35  1  0  0  0  0
  7 36  1  0  0  0  0
  7 37  1  0  0  0  0
  9 38  1  0  0  0  0
  9 39  1  0  0  0  0
 10 40  1  0  0  0  0
 10 41  1  0  0  0  0
 11 42  1  0  0  0  0
 11 43  1  0  0  0  0
 12 44  1  0  0  0  0
 12 45  1  0  0  0  0
 13 46  1  0  0  0  0
 13 47  1  0  0  0  0
 16 48  1  0  0  0  0
 17 49  1  0  0  0  0
 19 50  1  0  0  0  0
 20 51  1  0  0  0  0
 23 52  1  0  0  0  0
 23 53  1  0  0  0  0
 23 54  1  0  0  0  0
 24 55  1  0  0  0  0
 28 56  1  0  0  0  0
 31 57  1  0  0  0  0
 31 58  1  0  0  0  0
 31 59  1  0  0  0  0
 32 60  1  0  0  0  0
 32 61  1  0  0  0  0
M  END
> <UNIQUE_SMILES>
COC1CN(CCCOC2=CC=C(F)C=C2)CCC1NC(=O)C3=C(OC)C=C(N)C(=C3)Cl

> <USER_SUPPLIED_SMILES>
c3(C(=O)NC1C(CN(CC1)CCCOc2ccc(cc2)F)OC)cc(Cl)c(cc3OC)N

$$$$
C22H22FN3O2
APtclcactv12272117193D 0   0.00000     0.00000    20
 
 50 53  0  0  0  0  0  0  0  0999 V2000
   -9.8020   -0.3092    0.3773 F   0  0  0  0  0  0  0  0  0  0  0  0
   -8.4777   -0.1386    0.1716 C   0  0  0  0  0  0  0  0  0  0  0  0
   -8.0241    0.9755   -0.5193 C   0  0  0  0  0  0  0  0  0  0  0  0
   -6.6751    1.1555   -0.7324 C   0  0  0  0  0  0  0  0  0  0  0  0
   -5.7617    0.2113   -0.2503 C   0  0  0  0  0  0  0  0  0  0  0  0
   -4.3206    0.3972   -0.4737 C   0  0  0  0  0  0  0  0  0  0  0  0
   -3.9211    1.3705   -1.0769 O   0  0  0  0  0  0  0  0  0  0  0  0
   -3.3397   -0.6216    0.0470 C   0  0  0  0  0  0  0  0  0  0  0  0
   -1.9171   -0.1927   -0.3177 C   0  0  0  0  0  0  0  0  0  0  0  0
   -0.9213   -1.2271    0.2109 C   0  0  0  0  0  0  0  0  0  0  0  0
    0.4447   -0.8153   -0.1392 N   0  0  0  0  0  0  0  0  0  0  0  0
    1.3557   -1.7053    0.5955 C   0  0  0  0  0  0  0  0  0  0  0  0
    2.7909   -1.4185    0.1460 C   0  0  0  0  0  0  0  0  0  0  0  0
    3.0530    0.0612    0.2306 C   0  0  0  0  0  0  0  0  0  0  0  0
    4.3683    0.5203    0.1808 N   0  0  0  0  0  0  0  0  0  0  0  0
    5.4943   -0.2570   -0.0866 C   0  0  0  0  0  0  0  0  0  0  0  0
    6.5964    0.5997   -0.0381 C   0  0  0  0  0  0  0  0  0  0  0  0
    6.1062    1.8698    0.2570 N   0  0  0  0  0  0  0  0  0  0  0  0
    4.7675    1.7910    0.3771 C   0  0  0  0  0  0  0  0  0  0  0  0
    4.0308    2.7254    0.6316 O   0  0  0  0  0  0  0  0  0  0  0  0
    7.8690    0.1007   -0.2676 C   0  0  0  0  0  0  0  0  0  0  0  0
    8.0419   -1.2419   -0.5433 C   0  0  0  0  0  0  0  0  0  0  0  0
    6.9498   -2.0907   -0.5918 C   0  0  0  0  0  0  0  0  0  0  0  0
    5.6776   -1.6027   -0.3640 C   0  0  0  0  0  0  0  0  0  0  0  0
    2.0797    0.9298    0.3501 C   0  0  0  0  0  0  0  0  0  0  0  0
    0.6346    0.5289    0.4148 C   0  0  0  0  0  0  0  0  0  0  0  0
   -6.2260   -0.9104    0.4459 C   0  0  0  0  0  0  0  0  0  0  0  0
   -7.5771   -1.0754    0.6571 C   0  0  0  0  0  0  0  0  0  0  0  0
   -8.7301    1.7033   -0.8911 H   0  0  0  0  0  0  0  0  0  0  0  0
   -6.3233    2.0232   -1.2707 H   0  0  0  0  0  0  0  0  0  0  0  0
   -3.4311   -0.6931    1.1308 H   0  0  0  0  0  0  0  0  0  0  0  0
   -3.5525   -1.5925   -0.4005 H   0  0  0  0  0  0  0  0  0  0  0  0
   -1.8257   -0.1211   -1.4015 H   0  0  0  0  0  0  0  0  0  0  0  0
   -1.7043    0.7782    0.1298 H   0  0  0  0  0  0  0  0  0  0  0  0
   -1.0127   -1.2986    1.2947 H   0  0  0  0  0  0  0  0  0  0  0  0
   -1.1340   -2.1979   -0.2366 H   0  0  0  0  0  0  0  0  0  0  0  0
    1.2638   -1.5198    1.6657 H   0  0  0  0  0  0  0  0  0  0  0  0
    1.1055   -2.7439    0.3794 H   0  0  0  0  0  0  0  0  0  0  0  0
    3.4881   -1.9491    0.7944 H   0  0  0  0  0  0  0  0  0  0  0  0
    2.9236   -1.7532   -0.8828 H   0  0  0  0  0  0  0  0  0  0  0  0
    6.6384    2.6747    0.3555 H   0  0  0  0  0  0  0  0  0  0  0  0
    8.7236    0.7602   -0.2313 H   0  0  0  0  0  0  0  0  0  0  0  0
    9.0334   -1.6308   -0.7221 H   0  0  0  0  0  0  0  0  0  0  0  0
    7.0927   -3.1391   -0.8083 H   0  0  0  0  0  0  0  0  0  0  0  0
    4.8277   -2.2680   -0.4023 H   0  0  0  0  0  0  0  0  0  0  0  0
    2.3277    1.9795    0.4045 H   0  0  0  0  0  0  0  0  0  0  0  0
    0.0385    1.2407   -0.1563 H   0  0  0  0  0  0  0  0  0  0  0  0
    0.3055    0.5382    1.4539 H   0  0  0  0  0  0  0  0  0  0  0  0
   -5.5262   -1.6427    0.8205 H   0  0  0  0  0  0  0  0  0  0  0  0
   -7.9368   -1.9406    1.1942 H   0  0  0  0  0  0  0  0  0  0  0  0
  1  2  1  0  0  0  0
  2  3  1  0  0  0  0
  3  4  2  0  0  0  0
  4  5  1  0  0  0  0
  5  6  1  0  0  0  0
  6  7  2  0  0  0  0
  6  8  1  0  0  0  0
  8  9  1  0  0  0  0
  9 10  1  0  0  0  0
 10 11  1  0  0  0  0
 11 12  1  0  0  0  0
 12 13  1  0  0  0  0
 13 14  1  0  0  0  0
 14 15  1  0  0  0  0
 15 16  1  0  0  0  0
 16 17  1  0  0  0  0
 17 18  1  0  0  0  0
 18 19  1  0  0  0  0
 15 19  1  0  0  0  0
 19 20  2  0  0  0  0
 17 21  2  0  0  0  0
 21 22  1  0  0  0  0
 22 23  2  0  0  0  0
 23 24  1  0  0  0  0
 16 24  2  0  0  0  0
 14 25  2  0  0  0  0
 25 26  1  0  0  0  0
 11 26  1  0  0  0  0
  5 27  2  0  0  0  0
 27 28  1  0  0  0  0
  2 28  2  0  0  0  0
  3 29  1  0  0  0  0
  4 30  1  0  0  0  0
  8 31  1  0  0  0  0
  8 32  1  0  0  0  0
  9 33  1  0  0  0  0
  9 34  1  0  0  0  0
 10 35  1  0  0  0  0
 10 36  1  0  0  0  0
 12 37  1  0  0  0  0
 12 38  1  0  0  0  0
 13 39  1  0  0  0  0
 13 40  1  0  0  0  0
 18 41  1  0  0  0  0
 21 42  1  0  0  0  0
 22 43  1  0  0  0  0
 23 44  1  0  0  0  0
 24 45  1  0  0  0  0
 25 46  1  0  0  0  0
 26 47  1  0  0  0  0
 26 48  1  0  0  0  0
 27 49  1  0  0  0  0
 28 50  1  0  0  0  0
M  END
> <UNIQUE_SMILES>
FC1=CC=C(C=C1)C(=O)CCCN2CCC(=CC2)N3C(=O)NC4=CC=CC=C34

> <USER_SUPPLIED_SMILES>
Fc4ccc(C(=O)CCCN3CCC(\N1c2c(NC1=O)cccc2)=C/C3)cc4

$$$$
C5H6N2
APtclcactv12272117193D 0   0.00000     0.00000    21
 
 13 13  0  0  0  0  0  0  0  0999 V2000
    0.2223   -1.1972   -0.0002 C   0  0  0  0  0  0  0  0  0  0  0  0
   -1.1560   -1.1540   -0.0002 C   0  0  0  0  0  0  0  0  0  0  0  0
   -1.7968    0.0000    0.0000 N   0  0  0  0  0  0  0  0  0  0  0  0
   -1.1560    1.1540    0.0003 C   0  0  0  0  0  0  0  0  0  0  0  0
    0.2223    1.1972   -0.0002 C   0  0  0  0  0  0  0  0  0  0  0  0
    0.9378   -0.0000    0.0000 C   0  0  0  0  0  0  0  0  0  0  0  0
    2.3295   -0.0000    0.0000 N   0  0  0  0  0  0  0  0  0  0  0  0
    0.7404   -2.1448    0.0040 H   0  0  0  0  0  0  0  0  0  0  0  0
   -1.7183   -2.0760   -0.0008 H   0  0  0  0  0  0  0  0  0  0  0  0
   -1.7183    2.0760    0.0005 H   0  0  0  0  0  0  0  0  0  0  0  0
    0.7404    2.1448   -0.0007 H   0  0  0  0  0  0  0  0  0  0  0  0
    2.8145    0.8400   -0.0001 H   0  0  0  0  0  0  0  0  0  0  0  0
    2.8145   -0.8400    0.0001 H   0  0  0  0  0  0  0  0  0  0  0  0
  1  2  1  0  0  0  0
  2  3  2  0  0  0  0
  3  4  1  0  0  0  0
  4  5  2  0  0  0  0
  5  6  1  0  0  0  0
  1  6  2  0  0  0  0
  6  7  1  0  0  0  0
  1  8  1  0  0  0  0
  2  9  1  0  0  0  0
  4 10  1  0  0  0  0
  5 11  1  0  0  0  0
  7 12  1  0  0  0  0
  7 13  1  0  0  0  0
M  END
> <UNIQUE_SMILES>
NC1=CC=NC=C1

> <USER_SUPPLIED_SMILES>
c1cnccc1N

$$$$
C21H27N
APtclcactv12272117193D 0   0.00000     0.00000    22
 
 49 51  0  0  0  0  0  0  0  0999 V2000
    0.0706    3.2364    0.9388 C   0  0  0  0  0  0  0  0  0  0  0  0
   -0.0185    1.8590    1.0140 C   0  0  0  0  0  0  0  0  0  0  0  0
   -0.5213    1.1395   -0.0539 C   0  0  0  0  0  0  0  0  0  0  0  0
   -0.9355    1.7974   -1.1968 C   0  0  0  0  0  0  0  0  0  0  0  0
   -0.8473    3.1749   -1.2718 C   0  0  0  0  0  0  0  0  0  0  0  0
   -0.3432    3.8943   -0.2044 C   0  0  0  0  0  0  0  0  0  0  0  0
   -0.6174   -0.3623    0.0278 C   0  0  0  0  0  0  0  0  0  0  0  0
   -2.0666   -0.7737    0.0663 C   0  0  0  0  0  0  0  0  0  0  0  0
   -2.8556   -0.4250    1.1465 C   0  0  0  0  0  0  0  0  0  0  0  0
   -4.1850   -0.8025    1.1818 C   0  0  0  0  0  0  0  0  0  0  0  0
   -4.7254   -1.5283    0.1368 C   0  0  0  0  0  0  0  0  0  0  0  0
   -3.9366   -1.8762   -0.9438 C   0  0  0  0  0  0  0  0  0  0  0  0
   -2.6084   -1.4950   -0.9811 C   0  0  0  0  0  0  0  0  0  0  0  0
    0.0608   -0.9869   -1.1955 C   0  0  0  0  0  0  0  0  0  0  0  0
    1.5543   -0.6562   -1.1664 C   0  0  0  0  0  0  0  0  0  0  0  0
    2.1650   -1.2250    0.0399 N   0  0  0  0  0  0  0  0  0  0  0  0
    1.5833   -0.5297    1.1930 C   0  0  0  0  0  0  0  0  0  0  0  0
    0.0890   -0.8532    1.2953 C   0  0  0  0  0  0  0  0  0  0  0  0
    3.5884   -0.8634    0.0030 C   0  0  0  0  0  0  0  0  0  0  0  0
    3.7262    0.6586   -0.0702 C   0  0  0  0  0  0  0  0  0  0  0  0
    4.2782   -1.3778    1.2681 C   0  0  0  0  0  0  0  0  0  0  0  0
    4.2432   -1.4945   -1.2274 C   0  0  0  0  0  0  0  0  0  0  0  0
    0.4592    3.7989    1.7748 H   0  0  0  0  0  0  0  0  0  0  0  0
    0.3052    1.3449    1.9070 H   0  0  0  0  0  0  0  0  0  0  0  0
   -1.3276    1.2352   -2.0314 H   0  0  0  0  0  0  0  0  0  0  0  0
   -1.1706    3.6889   -2.1649 H   0  0  0  0  0  0  0  0  0  0  0  0
   -0.2746    4.9705   -0.2628 H   0  0  0  0  0  0  0  0  0  0  0  0
   -2.4334    0.1420    1.9629 H   0  0  0  0  0  0  0  0  0  0  0  0
   -4.8012   -0.5307    2.0260 H   0  0  0  0  0  0  0  0  0  0  0  0
   -5.7638   -1.8238    0.1647 H   0  0  0  0  0  0  0  0  0  0  0  0
   -4.3587   -2.4435   -1.7601 H   0  0  0  0  0  0  0  0  0  0  0  0
   -1.9921   -1.7668   -1.8254 H   0  0  0  0  0  0  0  0  0  0  0  0
   -0.0732   -2.0684   -1.1735 H   0  0  0  0  0  0  0  0  0  0  0  0
   -0.3841   -0.5824   -2.1046 H   0  0  0  0  0  0  0  0  0  0  0  0
    2.0359   -1.0767   -2.0492 H   0  0  0  0  0  0  0  0  0  0  0  0
    1.6860    0.4258   -1.1636 H   0  0  0  0  0  0  0  0  0  0  0  0
    2.0869   -0.8541    2.1036 H   0  0  0  0  0  0  0  0  0  0  0  0
    1.7134    0.5456    1.0714 H   0  0  0  0  0  0  0  0  0  0  0  0
   -0.3330   -0.3528    2.1669 H   0  0  0  0  0  0  0  0  0  0  0  0
   -0.0445   -1.9306    1.3928 H   0  0  0  0  0  0  0  0  0  0  0  0
    3.2699    1.1076    0.8120 H   0  0  0  0  0  0  0  0  0  0  0  0
    4.7821    0.9263   -0.1092 H   0  0  0  0  0  0  0  0  0  0  0  0
    3.2249    1.0262   -0.9655 H   0  0  0  0  0  0  0  0  0  0  0  0
    4.1799   -2.4621    1.3203 H   0  0  0  0  0  0  0  0  0  0  0  0
    5.3343   -1.1095    1.2408 H   0  0  0  0  0  0  0  0  0  0  0  0
    3.8117   -0.9281    2.1447 H   0  0  0  0  0  0  0  0  0  0  0  0
    3.7517   -1.1281   -2.1287 H   0  0  0  0  0  0  0  0  0  0  0  0
    5.2993   -1.2263   -1.2547 H   0  0  0  0  0  0  0  0  0  0  0  0
    4.1449   -2.5789   -1.1752 H   0  0  0  0  0  0  0  0  0  0  0  0
  1  2  1  0  0  0  0
  2  3  2  0  0  0  0
  3  4  1  0  0  0  0
  4  5  2  0  0  0  0
  5  6  1  0  0  0  0
  1  6  2  0  0  0  0
  3  7  1  0  0  0  0
  7  8  1  0  0  0  0
  8  9  1  0  0  0  0
  9 10  2  0  0  0  0
 10 11  1  0  0  0  0
 11 12  2  0  0  0  0
 12 13  1  0  0  0  0
  8 13  2  0  0  0  0
  7 14  1  0  0  0  0
 14 15  1  0  0  0  0
 15 16  1  0  0  0  0
 16 17  1  0  0  0  0
 17 18  1  0  0  0  0
  7 18  1  0  0  0  0
 16 19  1  0  0  0  0
 19 20  1  0  0  0  0
 19 21  1  0  0  0  0
 19 22  1  0  0  0  0
  1 23  1  0  0  0  0
  2 24  1  0  0  0  0
  4 25  1  0  0  0  0
  5 26  1  0  0  0  0
  6 27  1  0  0  0  0
  9 28  1  0  0  0  0
 10 29  1  0  0  0  0
 11 30  1  0  0  0  0
 12 31  1  0  0  0  0
 13 32  1  0  0  0  0
 14 33  1  0  0  0  0
 14 34  1  0  0  0  0
 15 35  1  0  0  0  0
 15 36  1  0  0  0  0
 17 37  1  0  0  0  0
 17 38  1  0  0  0  0
 18 39  1  0  0  0  0
 18 40  1  0  0  0  0
 20 41  1  0  0  0  0
 20 42  1  0  0  0  0
 20 43  1  0  0  0  0
 21 44  1  0  0  0  0
 21 45  1  0  0  0  0
 21 46  1  0  0  0  0
 22 47  1  0  0  0  0
 22 48  1  0  0  0  0
 22 49  1  0  0  0  0
M  END
> <UNIQUE_SMILES>
CC(C)(C)N1CCC(CC1)(C2=CC=CC=C2)C3=CC=CC=C3

> <USER_SUPPLIED_SMILES>
c1cc(ccc1)C3(c2ccccc2)CCN(CC3)C(C)(C)C

$$$$
C21H37ClN
APtclcactv12272117193D 0   0.00000     0.00000    23
 
 60 60  0  0  0  0  0  0  0  0999 V2000
    6.2568   -1.1982    0.2716 C   0  0  0  0  0  0  0  0  0  0  0  0
    5.0251   -1.1971   -0.3555 C   0  0  0  0  0  0  0  0  0  0  0  0
    4.4094    0.0005   -0.6682 C   0  0  0  0  0  0  0  0  0  0  0  0
    5.0253    1.1976   -0.3541 C   0  0  0  0  0  0  0  0  0  0  0  0
    6.2572    1.1978    0.2725 C   0  0  0  0  0  0  0  0  0  0  0  0
    6.8736   -0.0004    0.5862 C   0  0  0  0  0  0  0  0  0  0  0  0
    8.4207   -0.0010    1.3738 Cl  0  0  0  0  0  0  0  0  0  0  0  0
    3.0667    0.0010   -1.3524 C   0  0  0  0  0  0  0  0  0  0  0  0
    1.9574    0.0002   -0.2986 C   0  0  0  0  0  0  0  0  0  0  0  0
    0.5942    0.0007   -0.9932 C   0  0  0  0  0  0  0  0  0  0  0  0
   -0.5151   -0.0000    0.0605 C   0  0  0  0  0  0  0  0  0  0  0  0
   -1.8240    0.0004   -0.6064 N   0  3  0  0  0  0  0  0  0  0  0  0
   -2.8891   -0.0003    0.4054 C   0  0  0  0  0  0  0  0  0  0  0  0
   -4.2523    0.0002   -0.2892 C   0  0  0  0  0  0  0  0  0  0  0  0
   -5.3616   -0.0006    0.7645 C   0  0  0  0  0  0  0  0  0  0  0  0
   -6.7249   -0.0000    0.0699 C   0  0  0  0  0  0  0  0  0  0  0  0
   -7.8341   -0.0008    1.1237 C   0  0  0  0  0  0  0  0  0  0  0  0
   -9.1974   -0.0003    0.4291 C   0  0  0  0  0  0  0  0  0  0  0  0
  -10.3067   -0.0011    1.4829 C   0  0  0  0  0  0  0  0  0  0  0  0
   -1.9459    1.2005   -1.4448 C   0  0  0  0  0  0  0  0  0  0  0  0
   -1.8190    2.4491   -0.5697 C   0  0  0  0  0  0  0  0  0  0  0  0
   -1.9459   -1.1984   -1.4466 C   0  0  0  0  0  0  0  0  0  0  0  0
   -1.8190   -2.4483   -0.5733 C   0  0  0  0  0  0  0  0  0  0  0  0
    6.7356   -2.1339    0.5199 H   0  0  0  0  0  0  0  0  0  0  0  0
    4.5436   -2.1321   -0.6014 H   0  0  0  0  0  0  0  0  0  0  0  0
    4.5438    2.1329   -0.5987 H   0  0  0  0  0  0  0  0  0  0  0  0
    6.7385    2.1331    0.5173 H   0  0  0  0  0  0  0  0  0  0  0  0
    2.9762    0.8914   -1.9745 H   0  0  0  0  0  0  0  0  0  0  0  0
    2.9762   -0.8885   -1.9758 H   0  0  0  0  0  0  0  0  0  0  0  0
    2.0479   -0.8902    0.3235 H   0  0  0  0  0  0  0  0  0  0  0  0
    2.0479    0.8897    0.3248 H   0  0  0  0  0  0  0  0  0  0  0  0
    0.5037    0.8912   -1.6154 H   0  0  0  0  0  0  0  0  0  0  0  0
    0.5037   -0.8888   -1.6167 H   0  0  0  0  0  0  0  0  0  0  0  0
   -0.4247   -0.8905    0.6826 H   0  0  0  0  0  0  0  0  0  0  0  0
   -0.4247    0.8895    0.6839 H   0  0  0  0  0  0  0  0  0  0  0  0
   -2.7986   -0.8907    1.0275 H   0  0  0  0  0  0  0  0  0  0  0  0
   -2.7986    0.8892    1.0288 H   0  0  0  0  0  0  0  0  0  0  0  0
   -4.3428    0.8907   -0.9113 H   0  0  0  0  0  0  0  0  0  0  0  0
   -4.3428   -0.8893   -0.9126 H   0  0  0  0  0  0  0  0  0  0  0  0
   -5.2711   -0.8910    1.3867 H   0  0  0  0  0  0  0  0  0  0  0  0
   -5.2711    0.8890    1.3880 H   0  0  0  0  0  0  0  0  0  0  0  0
   -6.8153    0.8904   -0.5522 H   0  0  0  0  0  0  0  0  0  0  0  0
   -6.8153   -0.8896   -0.5535 H   0  0  0  0  0  0  0  0  0  0  0  0
   -7.7437   -0.8912    1.7458 H   0  0  0  0  0  0  0  0  0  0  0  0
   -7.7437    0.8887    1.7471 H   0  0  0  0  0  0  0  0  0  0  0  0
   -9.2878    0.8901   -0.1930 H   0  0  0  0  0  0  0  0  0  0  0  0
   -9.2878   -0.8898   -0.1943 H   0  0  0  0  0  0  0  0  0  0  0  0
  -11.2779   -0.0007    0.9880 H   0  0  0  0  0  0  0  0  0  0  0  0
  -10.2162   -0.8915    2.1050 H   0  0  0  0  0  0  0  0  0  0  0  0
  -10.2162    0.8885    2.1063 H   0  0  0  0  0  0  0  0  0  0  0  0
   -1.1557    1.2010   -2.1955 H   0  0  0  0  0  0  0  0  0  0  0  0
   -2.9171    1.2009   -1.9397 H   0  0  0  0  0  0  0  0  0  0  0  0
   -1.9094    3.3395   -1.1919 H   0  0  0  0  0  0  0  0  0  0  0  0
   -2.6092    2.4485    0.1810 H   0  0  0  0  0  0  0  0  0  0  0  0
   -0.8478    2.4487   -0.0749 H   0  0  0  0  0  0  0  0  0  0  0  0
   -2.9171   -1.1980   -1.9414 H   0  0  0  0  0  0  0  0  0  0  0  0
   -1.1557   -1.1978   -2.1973 H   0  0  0  0  0  0  0  0  0  0  0  0
   -1.9094   -3.3378   -1.1967 H   0  0  0  0  0  0  0  0  0  0  0  0
   -0.8478   -2.4486   -0.0785 H   0  0  0  0  0  0  0  0  0  0  0  0
   -2.6092   -2.4488    0.1774 H   0  0  0  0  0  0  0  0  0  0  0  0
  1  2  1  0  0  0  0
  2  3  2  0  0  0  0
  3  4  1  0  0  0  0
  4  5  2  0  0  0  0
  5  6  1  0  0  0  0
  1  6  2  0  0  0  0
  6  7  1  0  0  0  0
  3  8  1  0  0  0  0
  8  9  1  0  0  0  0
  9 10  1  0  0  0  0
 10 11  1  0  0  0  0
 11 12  1  0  0  0  0
 12 13  1  0  0  0  0
 13 14  1  0  0  0  0
 14 15  1  0  0  0  0
 15 16  1  0  0  0  0
 16 17  1  0  0  0  0
 17 18  1  0  0  0  0
 18 19  1  0  0  0  0
 12 20  1  0  0  0  0
 20 21  1  0  0  0  0
 12 22  1  0  0  0  0
 22 23  1  0  0  0  0
  1 24  1  0  0  0  0
  2 25  1  0  0  0  0
  4 26  1  0  0  0  0
  5 27  1  0  0  0  0
  8 28  1  0  0  0  0
  8 29  1  0  0  0  0
  9 30  1  0  0  0  0
  9 31  1  0  0  0  0
 10 32  1  0  0  0  0
 10 33  1  0  0  0  0
 11 34  1  0  0  0  0
 11 35  1  0  0  0  0
 13 36  1  0  0  0  0
 13 37  1  0  0  0  0
 14 38  1  0  0  0  0
 14 39  1  0  0  0  0
 15 40  1  0  0  0  0
 15 41  1  0  0  0  0
 16 42  1  0  0  0  0
 16 43  1  0  0  0  0
 17 44  1  0  0  0  0
 17 45  1  0  0  0  0
 18 46  1  0  0  0  0
 18 47  1  0  0  0  0
 19 48  1  0  0  0  0
 19 49  1  0  0  0  0
 19 50  1  0  0  0  0
 20 51  1  0  0  0  0
 20 52  1  0  0  0  0
 21 53  1  0  0  0  0
 21 54  1  0  0  0  0
 21 55  1  0  0  0  0
 22 56  1  0  0  0  0
 22 57  1  0  0  0  0
 23 58  1  0  0  0  0
 23 59  1  0  0  0  0
 23 60  1  0  0  0  0
M  CHG  1  12   1
M  END
> <UNIQUE_SMILES>
CCCCCCC[N+](CC)(CC)CCCCC1=CC=C(Cl)C=C1

> <USER_SUPPLIED_SMILES>
c1cc(ccc1Cl)CCCC[N+](CCCCCCC)(CC)CC

$$$$
C22H17ClN2
APtclcactv12272117193D 0   0.00000     0.00000    24
 
 42 45  0  0  0  0  0  0  0  0999 V2000
    3.1832    2.4339   -0.1848 N   0  0  0  0  0  0  0  0  0  0  0  0
    2.4388    1.4642   -0.6416 C   0  0  0  0  0  0  0  0  0  0  0  0
    1.4101    1.2694    0.2114 N   0  0  0  0  0  0  0  0  0  0  0  0
    1.5520    2.1729    1.2298 C   0  0  0  0  0  0  0  0  0  0  0  0
    2.6617    2.8882    0.9644 C   0  0  0  0  0  0  0  0  0  0  0  0
    0.3419    0.2765    0.0726 C   0  0  0  0  0  0  0  0  0  0  0  0
    0.6435   -0.6259   -1.0960 C   0  0  0  0  0  0  0  0  0  0  0  0
    0.7776   -0.0929   -2.3644 C   0  0  0  0  0  0  0  0  0  0  0  0
    1.0543   -0.9207   -3.4363 C   0  0  0  0  0  0  0  0  0  0  0  0
    1.1974   -2.2815   -3.2398 C   0  0  0  0  0  0  0  0  0  0  0  0
    1.0642   -2.8145   -1.9712 C   0  0  0  0  0  0  0  0  0  0  0  0
    0.7918   -1.9861   -0.8986 C   0  0  0  0  0  0  0  0  0  0  0  0
    0.2534   -0.5456    1.3325 C   0  0  0  0  0  0  0  0  0  0  0  0
    1.3459   -1.2779    1.7581 C   0  0  0  0  0  0  0  0  0  0  0  0
    1.2647   -2.0320    2.9137 C   0  0  0  0  0  0  0  0  0  0  0  0
    0.0912   -2.0536    3.6440 C   0  0  0  0  0  0  0  0  0  0  0  0
   -1.0010   -1.3206    3.2189 C   0  0  0  0  0  0  0  0  0  0  0  0
   -0.9184   -0.5630    2.0656 C   0  0  0  0  0  0  0  0  0  0  0  0
   -0.9703    0.9798   -0.1615 C   0  0  0  0  0  0  0  0  0  0  0  0
   -2.1102    0.2448   -0.4353 C   0  0  0  0  0  0  0  0  0  0  0  0
   -3.3143    0.8910   -0.6496 C   0  0  0  0  0  0  0  0  0  0  0  0
   -3.3782    2.2706   -0.5901 C   0  0  0  0  0  0  0  0  0  0  0  0
   -2.2391    3.0043   -0.3169 C   0  0  0  0  0  0  0  0  0  0  0  0
   -1.0365    2.3587   -0.0970 C   0  0  0  0  0  0  0  0  0  0  0  0
   -2.0290   -1.4877   -0.5105 Cl  0  0  0  0  0  0  0  0  0  0  0  0
    2.6159    0.9096   -1.5512 H   0  0  0  0  0  0  0  0  0  0  0  0
    0.8992    2.2898    2.0822 H   0  0  0  0  0  0  0  0  0  0  0  0
    3.0619    3.6872    1.5709 H   0  0  0  0  0  0  0  0  0  0  0  0
    0.6658    0.9703   -2.5179 H   0  0  0  0  0  0  0  0  0  0  0  0
    1.1583   -0.5044   -4.4274 H   0  0  0  0  0  0  0  0  0  0  0  0
    1.4129   -2.9284   -4.0774 H   0  0  0  0  0  0  0  0  0  0  0  0
    1.1757   -3.8777   -1.8178 H   0  0  0  0  0  0  0  0  0  0  0  0
    0.6878   -2.4024    0.0924 H   0  0  0  0  0  0  0  0  0  0  0  0
    2.2627   -1.2610    1.1876 H   0  0  0  0  0  0  0  0  0  0  0  0
    2.1180   -2.6047    3.2459 H   0  0  0  0  0  0  0  0  0  0  0  0
    0.0275   -2.6434    4.5465 H   0  0  0  0  0  0  0  0  0  0  0  0
   -1.9180   -1.3377    3.7892 H   0  0  0  0  0  0  0  0  0  0  0  0
   -1.7718    0.0096    1.7334 H   0  0  0  0  0  0  0  0  0  0  0  0
   -4.2043    0.3178   -0.8637 H   0  0  0  0  0  0  0  0  0  0  0  0
   -4.3183    2.7752   -0.7573 H   0  0  0  0  0  0  0  0  0  0  0  0
   -2.2894    4.0822   -0.2712 H   0  0  0  0  0  0  0  0  0  0  0  0
   -0.1467    2.9325    0.1164 H   0  0  0  0  0  0  0  0  0  0  0  0
  1  2  2  0  0  0  0
  2  3  1  0  0  0  0
  3  4  1  0  0  0  0
  4  5  2  0  0  0  0
  1  5  1  0  0  0  0
  3  6  1  0  0  0  0
  6  7  1  0  0  0  0
  7  8  1  0  0  0  0
  8  9  2  0  0  0  0
  9 10  1  0  0  0  0
 10 11  2  0  0  0  0
 11 12  1  0  0  0  0
  7 12  2  0  0  0  0
  6 13  1  0  0  0  0
 13 14  1  0  0  0  0
 14 15  2  0  0  0  0
 15 16  1  0  0  0  0
 16 17  2  0  0  0  0
 17 18  1  0  0  0  0
 13 18  2  0  0  0  0
  6 19  1  0  0  0  0
 19 20  1  0  0  0  0
 20 21  2  0  0  0  0
 21 22  1  0  0  0  0
 22 23  2  0  0  0  0
 23 24  1  0  0  0  0
 19 24  2  0  0  0  0
 20 25  1  0  0  0  0
  2 26  1  0  0  0  0
  4 27  1  0  0  0  0
  5 28  1  0  0  0  0
  8 29  1  0  0  0  0
  9 30  1  0  0  0  0
 10 31  1  0  0  0  0
 11 32  1  0  0  0  0
 12 33  1  0  0  0  0
 14 34  1  0  0  0  0
 15 35  1  0  0  0  0
 16 36  1  0  0  0  0
 17 37  1  0  0  0  0
 18 38  1  0  0  0  0
 21 39  1  0  0  0  0
 22 40  1  0  0  0  0
 23 41  1  0  0  0  0
 24 42  1  0  0  0  0
M  END
> <UNIQUE_SMILES>
ClC1=CC=CC=C1C([N]2C=CN=C2)(C3=CC=CC=C3)C4=CC=CC=C4

> <USER_SUPPLIED_SMILES>
n1cn(cc1)C(c2ccccc2)(c3ccccc3)c4c(cccc4)Cl

$$$$
C18H23NO4
APtclcactv12272117193D 0   0.00000     0.00000    25
 
 46 48  0  0  0  0  0  0  0  0999 V2000
    1.0738   -0.0386    1.2148 C   0  0  0  0  0  0  0  0  0  0  0  0
    1.5074   -1.3362    1.9029 C   0  0  0  0  0  0  0  0  0  0  0  0
    1.9034   -2.3611    0.8279 C   0  0  0  0  0  0  0  0  0  0  0  0
    0.7906   -2.3748   -0.2452 C   0  0  0  0  0  0  0  0  0  0  0  0
    1.2024   -1.2838   -1.2556 C   0  0  0  0  0  0  0  0  0  0  0  0
    2.5266   -0.7101   -0.7010 C   0  0  0  0  0  0  0  0  0  0  0  0
    2.1759    0.4348    0.2628 C   0  0  0  0  0  0  0  0  0  0  0  0
    1.6873    1.6243   -0.5231 C   0  0  0  0  0  0  0  0  0  0  0  0
    1.3221    2.7468    0.1159 O   0  0  0  0  0  0  0  0  0  0  0  0
    0.8514    3.8928   -0.6412 C   0  0  0  0  0  0  0  0  0  0  0  0
    0.5029    5.0310    0.3201 C   0  0  0  0  0  0  0  0  0  0  0  0
    1.6243    1.5675   -1.7284 O   0  0  0  0  0  0  0  0  0  0  0  0
    3.0906   -1.8171    0.1164 N   0  0  0  0  0  0  0  0  0  0  0  0
    3.5308   -2.8552   -0.8252 C   0  0  0  0  0  0  0  0  0  0  0  0
   -0.1455   -0.2749    0.4627 O   0  0  0  0  0  0  0  0  0  0  0  0
   -1.3445   -0.0991    1.0511 C   0  0  0  0  0  0  0  0  0  0  0  0
   -1.4056    0.2570    2.2108 O   0  0  0  0  0  0  0  0  0  0  0  0
   -2.5851   -0.3395    0.2859 C   0  0  0  0  0  0  0  0  0  0  0  0
   -3.8296   -0.1582    0.8927 C   0  0  0  0  0  0  0  0  0  0  0  0
   -4.9840   -0.3840    0.1722 C   0  0  0  0  0  0  0  0  0  0  0  0
   -4.9108   -0.7896   -1.1487 C   0  0  0  0  0  0  0  0  0  0  0  0
   -3.6809   -0.9715   -1.7560 C   0  0  0  0  0  0  0  0  0  0  0  0
   -2.5186   -0.7433   -1.0490 C   0  0  0  0  0  0  0  0  0  0  0  0
    0.8915    0.7278    1.9681 H   0  0  0  0  0  0  0  0  0  0  0  0
    2.3613   -1.1382    2.5507 H   0  0  0  0  0  0  0  0  0  0  0  0
    0.6810   -1.7292    2.4951 H   0  0  0  0  0  0  0  0  0  0  0  0
    2.0815   -3.3503    1.2496 H   0  0  0  0  0  0  0  0  0  0  0  0
    0.7473   -3.3479   -0.7344 H   0  0  0  0  0  0  0  0  0  0  0  0
   -0.1724   -2.1318    0.2038 H   0  0  0  0  0  0  0  0  0  0  0  0
    1.3616   -1.7205   -2.2415 H   0  0  0  0  0  0  0  0  0  0  0  0
    0.4419   -0.5045   -1.3033 H   0  0  0  0  0  0  0  0  0  0  0  0
    3.2002   -0.3868   -1.4947 H   0  0  0  0  0  0  0  0  0  0  0  0
    3.0598    0.7125    0.8369 H   0  0  0  0  0  0  0  0  0  0  0  0
    1.6331    4.2220   -1.3258 H   0  0  0  0  0  0  0  0  0  0  0  0
   -0.0355    3.6132   -1.2099 H   0  0  0  0  0  0  0  0  0  0  0  0
    0.1496    5.8913   -0.2483 H   0  0  0  0  0  0  0  0  0  0  0  0
   -0.2788    4.7018    1.0047 H   0  0  0  0  0  0  0  0  0  0  0  0
    1.3898    5.3106    0.8887 H   0  0  0  0  0  0  0  0  0  0  0  0
    4.2866   -2.4427   -1.4935 H   0  0  0  0  0  0  0  0  0  0  0  0
    3.9541   -3.6927   -0.2707 H   0  0  0  0  0  0  0  0  0  0  0  0
    2.6782   -3.2004   -1.4100 H   0  0  0  0  0  0  0  0  0  0  0  0
   -3.8881    0.1576    1.9238 H   0  0  0  0  0  0  0  0  0  0  0  0
   -5.9472   -0.2442    0.6403 H   0  0  0  0  0  0  0  0  0  0  0  0
   -5.8178   -0.9653   -1.7081 H   0  0  0  0  0  0  0  0  0  0  0  0
   -3.6309   -1.2889   -2.7871 H   0  0  0  0  0  0  0  0  0  0  0  0
   -1.5592   -0.8857   -1.5242 H   0  0  0  0  0  0  0  0  0  0  0  0
  1  2  1  0  0  0  0
  2  3  1  0  0  0  0
  3  4  1  0  0  0  0
  4  5  1  0  0  0  0
  5  6  1  0  0  0  0
  6  7  1  0  0  0  0
  1  7  1  0  0  0  0
  7  8  1  0  0  0  0
  8  9  1  0  0  0  0
  9 10  1  0  0  0  0
 10 11  1  0  0  0  0
  8 12  2  0  0  0  0
  6 13  1  0  0  0  0
  3 13  1  0  0  0  0
 13 14  1  0  0  0  0
  1 15  1  0  0  0  0
 15 16  1  0  0  0  0
 16 17  2  0  0  0  0
 16 18  1  0  0  0  0
 18 19  1  0  0  0  0
 19 20  2  0  0  0  0
 20 21  1  0  0  0  0
 21 22  2  0  0  0  0
 22 23  1  0  0  0  0
 18 23  2  0  0  0  0
  1 24  1  0  0  0  0
  2 25  1  0  0  0  0
  2 26  1  0  0  0  0
  3 27  1  0  0  0  0
  4 28  1  0  0  0  0
  4 29  1  0  0  0  0
  5 30  1  0  0  0  0
  5 31  1  0  0  0  0
  6 32  1  0  0  0  0
  7 33  1  0  0  0  0
 10 34  1  0  0  0  0
 10 35  1  0  0  0  0
 11 36  1  0  0  0  0
 11 37  1  0  0  0  0
 11 38  1  0  0  0  0
 14 39  1  0  0  0  0
 14 40  1  0  0  0  0
 14 41  1  0  0  0  0
 19 42  1  0  0  0  0
 20 43  1  0  0  0  0
 21 44  1  0  0  0  0
 22 45  1  0  0  0  0
 23 46  1  0  0  0  0
M  END
> <UNIQUE_SMILES>
CCOC(=O)C1C(CC2CCC1N2C)OC(=O)C3=CC=CC=C3

> <USER_SUPPLIED_SMILES>
C1(CC2CCC(C1C(OCC)=O)N2C)OC(=O)c3ccccc3

$$$$
C25H35N3O5S
APtclcactv12272117193D 0   0.00000     0.00000    26
 
 69 71  0  0  0  0  0  0  0  0999 V2000
    6.7752   -1.3258   -0.2963 C   0  0  0  0  0  0  0  0  0  0  0  0
    6.3792   -0.9140    1.1055 C   0  0  0  0  0  0  0  0  0  0  0  0
    7.5908   -0.1162    1.6191 C   0  0  0  0  0  0  0  0  0  0  0  0
    8.5892   -0.1245    0.4887 C   0  0  0  0  0  0  0  0  0  0  0  0
    8.1111   -0.7969   -0.5484 C   0  0  0  0  0  0  0  0  0  0  0  0
    8.8618   -0.9930   -1.8403 C   0  0  0  0  0  0  0  0  0  0  0  0
    9.5956   -2.3351   -1.8050 C   0  0  0  0  0  0  0  0  0  0  0  0
    9.9413    0.5394    0.5324 C   0  0  0  0  0  0  0  0  0  0  0  0
    5.1497   -0.0432    1.0722 C   0  0  0  0  0  0  0  0  0  0  0  0
    5.2008    1.0945    1.4894 O   0  0  0  0  0  0  0  0  0  0  0  0
    3.9932   -0.5287    0.5788 N   0  0  0  0  0  0  0  0  0  0  0  0
    2.7980    0.3178    0.5464 C   0  0  0  0  0  0  0  0  0  0  0  0
    1.6322   -0.4687   -0.0562 C   0  0  0  0  0  0  0  0  0  0  0  0
    0.4027    0.4021   -0.0895 C   0  0  0  0  0  0  0  0  0  0  0  0
    0.1422    1.1882   -1.1964 C   0  0  0  0  0  0  0  0  0  0  0  0
   -0.9856    1.9870   -1.2269 C   0  0  0  0  0  0  0  0  0  0  0  0
   -1.8532    1.9993   -0.1507 C   0  0  0  0  0  0  0  0  0  0  0  0
   -1.5931    1.2126    0.9558 C   0  0  0  0  0  0  0  0  0  0  0  0
   -0.4676    0.4105    0.9845 C   0  0  0  0  0  0  0  0  0  0  0  0
   -3.2901    3.0184   -0.1891 S   0  0  0  0  0  0  0  0  0  0  0  0
   -3.6521    3.2267    1.1691 O   0  0  0  0  0  0  0  0  0  0  0  0
   -3.0111    4.0437   -1.1325 O   0  0  0  0  0  0  0  0  0  0  0  0
   -4.5157    2.1212   -0.8489 N   0  0  0  0  0  0  0  0  0  0  0  0
   -4.9758    1.0312   -0.2034 C   0  0  0  0  0  0  0  0  0  0  0  0
   -4.4910    0.7065    0.8633 O   0  0  0  0  0  0  0  0  0  0  0  0
   -5.9734    0.3011   -0.7404 N   0  0  0  0  0  0  0  0  0  0  0  0
   -6.4735   -0.8837   -0.0388 C   0  0  0  0  0  0  0  0  0  0  0  0
   -7.9167   -1.1583   -0.4663 C   0  0  0  0  0  0  0  0  0  0  0  0
   -8.4390   -2.3957    0.2664 C   0  0  0  0  0  0  0  0  0  0  0  0
   -7.5653   -3.6021   -0.0831 C   0  0  0  0  0  0  0  0  0  0  0  0
   -6.1221   -3.3275    0.3444 C   0  0  0  0  0  0  0  0  0  0  0  0
   -5.5998   -2.0901   -0.3883 C   0  0  0  0  0  0  0  0  0  0  0  0
   -8.0876   -4.8395    0.6496 C   0  0  0  0  0  0  0  0  0  0  0  0
    6.1057   -1.9808   -1.0676 O   0  0  0  0  0  0  0  0  0  0  0  0
    6.2091   -1.7926    1.7277 H   0  0  0  0  0  0  0  0  0  0  0  0
    7.2963    0.9066    1.8544 H   0  0  0  0  0  0  0  0  0  0  0  0
    8.0143   -0.5993    2.4996 H   0  0  0  0  0  0  0  0  0  0  0  0
    8.1593   -0.9848   -2.6736 H   0  0  0  0  0  0  0  0  0  0  0  0
    9.5846   -0.1869   -1.9665 H   0  0  0  0  0  0  0  0  0  0  0  0
   10.1386   -2.4770   -2.7394 H   0  0  0  0  0  0  0  0  0  0  0  0
   10.2981   -2.3433   -0.9717 H   0  0  0  0  0  0  0  0  0  0  0  0
    8.8728   -3.1412   -1.6789 H   0  0  0  0  0  0  0  0  0  0  0  0
   10.6801   -0.1655    0.9138 H   0  0  0  0  0  0  0  0  0  0  0  0
   10.2242    0.8541   -0.4722 H   0  0  0  0  0  0  0  0  0  0  0  0
    9.8978    1.4098    1.1870 H   0  0  0  0  0  0  0  0  0  0  0  0
    3.9523   -1.4385    0.2451 H   0  0  0  0  0  0  0  0  0  0  0  0
    2.5430    0.6254    1.5606 H   0  0  0  0  0  0  0  0  0  0  0  0
    2.9942    1.2004   -0.0624 H   0  0  0  0  0  0  0  0  0  0  0  0
    1.8871   -0.7763   -1.0704 H   0  0  0  0  0  0  0  0  0  0  0  0
    1.4360   -1.3512    0.5526 H   0  0  0  0  0  0  0  0  0  0  0  0
    0.8200    1.1785   -2.0371 H   0  0  0  0  0  0  0  0  0  0  0  0
   -1.1888    2.6016   -2.0913 H   0  0  0  0  0  0  0  0  0  0  0  0
   -2.2707    1.2225    1.7967 H   0  0  0  0  0  0  0  0  0  0  0  0
   -0.2645   -0.2042    1.8489 H   0  0  0  0  0  0  0  0  0  0  0  0
   -4.9025    2.3803   -1.6999 H   0  0  0  0  0  0  0  0  0  0  0  0
   -6.3602    0.5601   -1.5914 H   0  0  0  0  0  0  0  0  0  0  0  0
   -6.4399   -0.7103    1.0368 H   0  0  0  0  0  0  0  0  0  0  0  0
   -8.5391   -0.2988   -0.2173 H   0  0  0  0  0  0  0  0  0  0  0  0
   -7.9503   -1.3318   -1.5419 H   0  0  0  0  0  0  0  0  0  0  0  0
   -8.4054   -2.2222    1.3420 H   0  0  0  0  0  0  0  0  0  0  0  0
   -9.4672   -2.5913   -0.0381 H   0  0  0  0  0  0  0  0  0  0  0  0
   -7.5989   -3.7756   -1.1587 H   0  0  0  0  0  0  0  0  0  0  0  0
   -6.0885   -3.1540    1.4200 H   0  0  0  0  0  0  0  0  0  0  0  0
   -5.4996   -4.1870    0.0954 H   0  0  0  0  0  0  0  0  0  0  0  0
   -5.6334   -2.2636   -1.4639 H   0  0  0  0  0  0  0  0  0  0  0  0
   -4.5716   -1.8945   -0.0838 H   0  0  0  0  0  0  0  0  0  0  0  0
   -9.1158   -5.0351    0.3451 H   0  0  0  0  0  0  0  0  0  0  0  0
   -7.4651   -5.6989    0.4006 H   0  0  0  0  0  0  0  0  0  0  0  0
   -8.0540   -4.6660    1.7252 H   0  0  0  0  0  0  0  0  0  0  0  0
  1  2  1  0  0  0  0
  2  3  1  0  0  0  0
  3  4  1  0  0  0  0
  4  5  2  0  0  0  0
  1  5  1  0  0  0  0
  5  6  1  0  0  0  0
  6  7  1  0  0  0  0
  4  8  1  0  0  0  0
  2  9  1  0  0  0  0
  9 10  2  0  0  0  0
  9 11  1  0  0  0  0
 11 12  1  0  0  0  0
 12 13  1  0  0  0  0
 13 14  1  0  0  0  0
 14 15  1  0  0  0  0
 15 16  2  0  0  0  0
 16 17  1  0  0  0  0
 17 18  2  0  0  0  0
 18 19  1  0  0  0  0
 14 19  2  0  0  0  0
 17 20  1  0  0  0  0
 20 21  2  0  0  0  0
 20 22  2  0  0  0  0
 20 23  1  0  0  0  0
 23 24  1  0  0  0  0
 24 25  2  0  0  0  0
 24 26  1  0  0  0  0
 26 27  1  0  0  0  0
 27 28  1  0  0  0  0
 28 29  1  0  0  0  0
 29 30  1  0  0  0  0
 30 31  1  0  0  0  0
 31 32  1  0  0  0  0
 27 32  1  0  0  0  0
 30 33  1  0  0  0  0
  1 34  2  0  0  0  0
  2 35  1  0  0  0  0
  3 36  1  0  0  0  0
  3 37  1  0  0  0  0
  6 38  1  0  0  0  0
  6 39  1  0  0  0  0
  7 40  1  0  0  0  0
  7 41  1  0  0  0  0
  7 42  1  0  0  0  0
  8 43  1  0  0  0  0
  8 44  1  0  0  0  0
  8 45  1  0  0  0  0
 11 46  1  0  0  0  0
 12 47  1  0  0  0  0
 12 48  1  0  0  0  0
 13 49  1  0  0  0  0
 13 50  1  0  0  0  0
 15 51  1  0  0  0  0
 16 52  1  0  0  0  0
 18 53  1  0  0  0  0
 19 54  1  0  0  0  0
 23 55  1  0  0  0  0
 26 56  1  0  0  0  0
 27 57  1  0  0  0  0
 28 58  1  0  0  0  0
 28 59  1  0  0  0  0
 29 60  1  0  0  0  0
 29 61  1  0  0  0  0
 30 62  1  0  0  0  0
 31 63  1  0  0  0  0
 31 64  1  0  0  0  0
 32 65  1  0  0  0  0
 32 66  1  0  0  0  0
 33 67  1  0  0  0  0
 33 68  1  0  0  0  0
 33 69  1  0  0  0  0
M  END
> <UNIQUE_SMILES>
CCC1=C(C)CC(C(=O)NCCC2=CC=C(C=C2)[S](=O)(=O)NC(=O)NC3CCC(C)CC3)C1=O

> <USER_SUPPLIED_SMILES>
C/1(C(C\C(=C\1CC)C)C(=O)NCCc2ccc(cc2)S(=O)(=O)NC(=O)NC3CCC(CC3)C)=O

$$$$
C29H41NO4
APtclcactv12272117193D 0   0.00000     0.00000    27
 
 75 81  0  0  1  0  0  0  0  0999 V2000
   -1.9033   -2.0276   -0.0187 N   0  0  0  0  0  0  0  0  0  0  0  0
   -3.0478   -2.7919    0.4949 C   0  0  0  0  0  0  0  0  0  0  0  0
   -3.7076   -3.5566   -0.6544 C   0  0  0  0  0  0  0  0  0  0  0  0
   -4.8524   -4.5092   -0.3038 C   0  0  0  0  0  0  0  0  0  0  0  0
   -5.1479   -3.1867   -1.0142 C   0  0  0  0  0  0  0  0  0  0  0  0
   -1.5101   -1.0832    1.0480 C   0  0  1  0  0  0  0  0  0  0  0  0
   -1.2776   -1.6469    1.9515 H   0  0  0  0  0  0  0  0  0  0  0  0
   -0.2587   -0.3463    0.5880 C   0  0  2  0  0  0  0  0  0  0  0  0
   -0.6463    0.4888   -0.6431 C   0  0  1  0  0  0  0  0  0  0  0  0
   -1.5626    1.5137   -0.0422 C   0  0  0  0  0  0  0  0  0  0  0  0
   -2.5621    1.2262    0.8674 C   0  0  0  0  0  0  0  0  0  0  0  0
   -3.3077    2.3117    1.2832 C   0  0  0  0  0  0  0  0  0  0  0  0
   -2.9822    3.5867    0.8451 C   0  0  0  0  0  0  0  0  0  0  0  0
   -1.8918    3.8648    0.0235 C   0  0  0  0  0  0  0  0  0  0  0  0
   -1.1218    2.7716   -0.3987 C   0  0  0  0  0  0  0  0  0  0  0  0
    0.0729    2.6975   -1.0171 O   0  0  0  0  0  0  0  0  0  0  0  0
    0.5179    1.3351   -1.1576 C   0  0  1  0  0  0  0  0  0  0  0  0
    0.7395    1.1030   -2.1992 H   0  0  0  0  0  0  0  0  0  0  0  0
    1.7323    1.0594   -0.2658 C   0  0  1  0  0  0  0  0  0  0  0  0
    2.0716   -0.4335   -0.3159 C   0  0  1  0  0  0  0  0  0  0  0  0
    2.2817   -0.7197   -1.3465 H   0  0  0  0  0  0  0  0  0  0  0  0
    3.3095   -0.6984    0.5434 C   0  0  1  0  0  0  0  0  0  0  0  0
    4.2102    0.4056    0.4344 O   0  0  0  0  0  0  0  0  0  0  0  0
    2.8888   -0.8711    2.0042 C   0  0  0  0  0  0  0  0  0  0  0  0
    4.0037   -1.9728    0.0585 C   0  0  0  0  0  0  0  0  0  0  0  0
    4.4869   -1.7747   -1.3796 C   0  0  0  0  0  0  0  0  0  0  0  0
    5.2008   -2.2766    0.9615 C   0  0  0  0  0  0  0  0  0  0  0  0
    3.0174   -3.1414    0.1087 C   0  0  0  0  0  0  0  0  0  0  0  0
    0.8845   -1.2763    0.2083 C   0  0  0  0  0  0  0  0  0  0  0  0
    2.8494    1.8189   -0.7322 O   0  0  0  0  0  0  0  0  0  0  0  0
    2.9979    1.5238   -2.1224 C   0  0  0  0  0  0  0  0  0  0  0  0
    1.4067    1.4552    1.1752 C   0  0  0  0  0  0  0  0  0  0  0  0
    0.2087    0.6088    1.6924 C   0  0  0  0  0  0  0  0  0  0  0  0
   -1.5890    5.1364   -0.3519 O   0  0  0  0  0  0  0  0  0  0  0  0
   -2.7045   -0.1729    1.3241 C   0  0  0  0  0  0  0  0  0  0  0  0
   -1.2919   -0.3569   -1.7122 C   0  0  0  0  0  0  0  0  0  0  0  0
   -2.4087   -1.2022   -1.1242 C   0  0  0  0  0  0  0  0  0  0  0  0
   -2.7036   -3.4979    1.2507 H   0  0  0  0  0  0  0  0  0  0  0  0
   -3.7714   -2.1083    0.9390 H   0  0  0  0  0  0  0  0  0  0  0  0
   -3.0435   -3.8461   -1.4688 H   0  0  0  0  0  0  0  0  0  0  0  0
   -4.9417   -5.4251   -0.8879 H   0  0  0  0  0  0  0  0  0  0  0  0
   -5.1356   -4.5911    0.7455 H   0  0  0  0  0  0  0  0  0  0  0  0
   -5.6255   -2.3985   -0.4321 H   0  0  0  0  0  0  0  0  0  0  0  0
   -5.4317   -3.2326   -2.0656 H   0  0  0  0  0  0  0  0  0  0  0  0
   -4.1452    2.1676    1.9497 H   0  0  0  0  0  0  0  0  0  0  0  0
   -3.6081    4.4092    1.1583 H   0  0  0  0  0  0  0  0  0  0  0  0
    4.4501    0.4795   -0.4995 H   0  0  0  0  0  0  0  0  0  0  0  0
    2.0490   -1.5636    2.0611 H   0  0  0  0  0  0  0  0  0  0  0  0
    3.7260   -1.2673    2.5790 H   0  0  0  0  0  0  0  0  0  0  0  0
    2.5919    0.0946    2.4134 H   0  0  0  0  0  0  0  0  0  0  0  0
    5.1895   -0.9421   -1.4154 H   0  0  0  0  0  0  0  0  0  0  0  0
    4.9814   -2.6825   -1.7250 H   0  0  0  0  0  0  0  0  0  0  0  0
    3.6340   -1.5583   -2.0229 H   0  0  0  0  0  0  0  0  0  0  0  0
    4.8566   -2.4177    1.9860 H   0  0  0  0  0  0  0  0  0  0  0  0
    5.6954   -3.1844    0.6161 H   0  0  0  0  0  0  0  0  0  0  0  0
    5.9034   -1.4440    0.9257 H   0  0  0  0  0  0  0  0  0  0  0  0
    2.2170   -2.9726   -0.6116 H   0  0  0  0  0  0  0  0  0  0  0  0
    3.5381   -4.0670   -0.1370 H   0  0  0  0  0  0  0  0  0  0  0  0
    2.5947   -3.2172    1.1105 H   0  0  0  0  0  0  0  0  0  0  0  0
    1.1990   -1.8441    1.0840 H   0  0  0  0  0  0  0  0  0  0  0  0
    0.5509   -1.9609   -0.5715 H   0  0  0  0  0  0  0  0  0  0  0  0
    3.9024    2.0003   -2.5004 H   0  0  0  0  0  0  0  0  0  0  0  0
    3.0714    0.4449   -2.2590 H   0  0  0  0  0  0  0  0  0  0  0  0
    2.1332    1.9011   -2.6684 H   0  0  0  0  0  0  0  0  0  0  0  0
    2.2818    1.2872    1.8029 H   0  0  0  0  0  0  0  0  0  0  0  0
    1.1375    2.5110    1.2081 H   0  0  0  0  0  0  0  0  0  0  0  0
   -0.6075    1.2721    1.9786 H   0  0  0  0  0  0  0  0  0  0  0  0
    0.5231    0.0266    2.5586 H   0  0  0  0  0  0  0  0  0  0  0  0
   -0.9876    5.4898    0.3178 H   0  0  0  0  0  0  0  0  0  0  0  0
   -3.5817   -0.6045    0.8420 H   0  0  0  0  0  0  0  0  0  0  0  0
   -2.8763   -0.1676    2.4005 H   0  0  0  0  0  0  0  0  0  0  0  0
   -1.6982    0.2923   -2.4878 H   0  0  0  0  0  0  0  0  0  0  0  0
   -0.5424   -1.0153   -2.1513 H   0  0  0  0  0  0  0  0  0  0  0  0
   -2.8205   -1.8482   -1.8995 H   0  0  0  0  0  0  0  0  0  0  0  0
   -3.1943   -0.5498   -0.7430 H   0  0  0  0  0  0  0  0  0  0  0  0
  1  2  1  0  0  0  0
  2  3  1  0  0  0  0
  3  4  1  0  0  0  0
  4  5  1  0  0  0  0
  3  5  1  0  0  0  0
  1  6  1  0  0  0  0
  6  7  1  0  0  0  0
  6  8  1  0  0  0  0
  8  9  1  0  0  0  0
  9 10  1  0  0  0  0
 10 11  1  0  0  0  0
 11 12  2  0  0  0  0
 12 13  1  0  0  0  0
 13 14  2  0  0  0  0
 14 15  1  0  0  0  0
 10 15  2  0  0  0  0
 15 16  1  0  0  0  0
 16 17  1  0  0  0  0
 17 18  1  0  0  0  0
  9 17  1  0  0  0  0
 17 19  1  0  0  0  0
 19 20  1  0  0  0  0
 20 21  1  0  0  0  0
 20 22  1  0  0  0  0
 22 23  1  0  0  0  0
 22 24  1  0  0  0  0
 22 25  1  0  0  0  0
 25 26  1  0  0  0  0
 25 27  1  0  0  0  0
 25 28  1  0  0  0  0
 20 29  1  0  0  0  0
  8 29  1  0  0  0  0
 19 30  1  0  0  0  0
 30 31  1  0  0  0  0
 19 32  1  0  0  0  0
 32 33  1  0  0  0  0
  8 33  1  0  0  0  0
 14 34  1  0  0  0  0
 11 35  1  0  0  0  0
  6 35  1  0  0  0  0
  9 36  1  0  0  0  0
 36 37  1  0  0  0  0
  1 37  1  0  0  0  0
  2 38  1  0  0  0  0
  2 39  1  0  0  0  0
  3 40  1  0  0  0  0
  4 41  1  0  0  0  0
  4 42  1  0  0  0  0
  5 43  1  0  0  0  0
  5 44  1  0  0  0  0
 12 45  1  0  0  0  0
 13 46  1  0  0  0  0
 23 47  1  0  0  0  0
 24 48  1  0  0  0  0
 24 49  1  0  0  0  0
 24 50  1  0  0  0  0
 26 51  1  0  0  0  0
 26 52  1  0  0  0  0
 26 53  1  0  0  0  0
 27 54  1  0  0  0  0
 27 55  1  0  0  0  0
 27 56  1  0  0  0  0
 28 57  1  0  0  0  0
 28 58  1  0  0  0  0
 28 59  1  0  0  0  0
 29 60  1  0  0  0  0
 29 61  1  0  0  0  0
 31 62  1  0  0  0  0
 31 63  1  0  0  0  0
 31 64  1  0  0  0  0
 32 65  1  0  0  0  0
 32 66  1  0  0  0  0
 33 67  1  0  0  0  0
 33 68  1  0  0  0  0
 34 69  1  0  0  0  0
 35 70  1  0  0  0  0
 35 71  1  0  0  0  0
 36 72  1  0  0  0  0
 36 73  1  0  0  0  0
 37 74  1  0  0  0  0
 37 75  1  0  0  0  0
M  END
> <UNIQUE_SMILES>
CO[C@]12CC[C@@]3(C[C@@H]1[C@](C)(O)C(C)(C)C)[C@H]4CC5=CC=C(O)C6=C5[C@@]3(CCN4CC7CC7)[C@H]2O6

> <USER_SUPPLIED_SMILES>
N7(CC1CC1)[C@H]6[C@]45[C@]3(c2c(ccc(c2O[C@H]3[C@@]([C@@H]([C@@](O)(C)C(C)(C)C)C4)(OC)CC5)O)C6)CC7

$$$$
C4H7Cl3O
APtclcactv12272117193D 0   0.00000     0.00000    28
 
 15 14  0  0  0  0  0  0  0  0999 V2000
    1.7945   -0.6834    1.2134 C   0  0  0  0  0  0  0  0  0  0  0  0
    1.2459    0.0271   -0.0256 C   0  0  0  0  0  0  0  0  0  0  0  0
    1.7309    1.4781   -0.0381 C   0  0  0  0  0  0  0  0  0  0  0  0
    1.7091   -0.6401   -1.2014 O   0  0  0  0  0  0  0  0  0  0  0  0
   -0.2835    0.0008    0.0067 C   0  0  0  0  0  0  0  0  0  0  0  0
   -0.8678    0.8426    1.4902 Cl  0  0  0  0  0  0  0  0  0  0  0  0
   -0.9300    0.8380   -1.4534 Cl  0  0  0  0  0  0  0  0  0  0  0  0
   -0.8550   -1.7092    0.0214 Cl  0  0  0  0  0  0  0  0  0  0  0  0
    1.4413   -0.1745    2.1103 H   0  0  0  0  0  0  0  0  0  0  0  0
    1.4490   -1.7171    1.2223 H   0  0  0  0  0  0  0  0  0  0  0  0
    2.8841   -0.6646    1.1904 H   0  0  0  0  0  0  0  0  0  0  0  0
    2.8205    1.4968   -0.0612 H   0  0  0  0  0  0  0  0  0  0  0  0
    1.3401    1.9843   -0.9209 H   0  0  0  0  0  0  0  0  0  0  0  0
    1.3777    1.9870    0.8587 H   0  0  0  0  0  0  0  0  0  0  0  0
    1.3823   -1.5490   -1.1541 H   0  0  0  0  0  0  0  0  0  0  0  0
  1  2  1  0  0  0  0
  2  3  1  0  0  0  0
  2  4  1  0  0  0  0
  2  5  1  0  0  0  0
  5  6  1  0  0  0  0
  5  7  1  0  0  0  0
  5  8  1  0  0  0  0
  1  9  1  0  0  0  0
  1 10  1  0  0  0  0
  1 11  1  0  0  0  0
  3 12  1  0  0  0  0
  3 13  1  0  0  0  0
  3 14  1  0  0  0  0
  4 15  1  0  0  0  0
M  END
> <UNIQUE_SMILES>
CC(C)(O)C(Cl)(Cl)Cl

> <USER_SUPPLIED_SMILES>
CC(C)(O)C(Cl)(Cl)Cl

$$$$
C21H27NO2
APtclcactv12272117193D 0   0.00000     0.00000    29
 
 51 53  0  0  0  0  0  0  0  0999 V2000
   -2.0172    0.0321    1.1146 C   0  0  0  0  0  0  0  0  0  0  0  0
   -2.9858   -1.1466    1.2297 C   0  0  0  0  0  0  0  0  0  0  0  0
   -4.1927   -0.8914    0.3640 C   0  0  0  0  0  0  0  0  0  0  0  0
   -4.2005   -1.3127   -0.9525 C   0  0  0  0  0  0  0  0  0  0  0  0
   -5.3075   -1.0785   -1.7466 C   0  0  0  0  0  0  0  0  0  0  0  0
   -6.4069   -0.4236   -1.2240 C   0  0  0  0  0  0  0  0  0  0  0  0
   -6.3995   -0.0032    0.0929 C   0  0  0  0  0  0  0  0  0  0  0  0
   -5.2942   -0.2411    0.8882 C   0  0  0  0  0  0  0  0  0  0  0  0
   -0.8503   -0.1661    2.0870 C   0  0  0  0  0  0  0  0  0  0  0  0
    0.1694    0.9564    1.8848 C   0  0  0  0  0  0  0  0  0  0  0  0
    0.6960    0.9079    0.5167 N   0  0  0  0  0  0  0  0  0  0  0  0
   -0.4153    1.2148   -0.3901 C   0  0  0  0  0  0  0  0  0  0  0  0
   -1.4672    0.1065   -0.3132 C   0  0  0  0  0  0  0  0  0  0  0  0
    1.6574    2.0120    0.3950 C   0  0  0  0  0  0  0  0  0  0  0  0
    2.6029    1.7381   -0.7763 C   0  0  0  0  0  0  0  0  0  0  0  0
    3.3794    0.4743   -0.5102 C   0  0  0  0  0  0  0  0  0  0  0  0
    4.6371    0.5441    0.0597 C   0  0  0  0  0  0  0  0  0  0  0  0
    5.3509   -0.6130    0.3046 C   0  0  0  0  0  0  0  0  0  0  0  0
    4.8047   -1.8458   -0.0218 C   0  0  0  0  0  0  0  0  0  0  0  0
    3.5425   -1.9132   -0.5935 C   0  0  0  0  0  0  0  0  0  0  0  0
    2.8304   -0.7535   -0.8313 C   0  0  0  0  0  0  0  0  0  0  0  0
    5.5051   -2.9855    0.2178 O   0  0  0  0  0  0  0  0  0  0  0  0
    1.8427    1.5863   -1.9768 O   0  0  0  0  0  0  0  0  0  0  0  0
    0.9032    3.3198    0.1466 C   0  0  0  0  0  0  0  0  0  0  0  0
   -2.5393    0.9583    1.3550 H   0  0  0  0  0  0  0  0  0  0  0  0
   -2.4887   -2.0589    0.9002 H   0  0  0  0  0  0  0  0  0  0  0  0
   -3.3001   -1.2586    2.2674 H   0  0  0  0  0  0  0  0  0  0  0  0
   -3.3415   -1.8244   -1.3609 H   0  0  0  0  0  0  0  0  0  0  0  0
   -5.3133   -1.4070   -2.7754 H   0  0  0  0  0  0  0  0  0  0  0  0
   -7.2716   -0.2401   -1.8446 H   0  0  0  0  0  0  0  0  0  0  0  0
   -7.2584    0.5088    0.5011 H   0  0  0  0  0  0  0  0  0  0  0  0
   -5.2884    0.0874    1.9170 H   0  0  0  0  0  0  0  0  0  0  0  0
   -1.2216   -0.1405    3.1115 H   0  0  0  0  0  0  0  0  0  0  0  0
   -0.3756   -1.1283    1.8948 H   0  0  0  0  0  0  0  0  0  0  0  0
   -0.3132    1.9191    2.0534 H   0  0  0  0  0  0  0  0  0  0  0  0
    0.9887    0.8337    2.5931 H   0  0  0  0  0  0  0  0  0  0  0  0
   -0.8670    2.1639   -0.1015 H   0  0  0  0  0  0  0  0  0  0  0  0
   -0.0404    1.2884   -1.4109 H   0  0  0  0  0  0  0  0  0  0  0  0
   -1.0111   -0.8475   -0.5778 H   0  0  0  0  0  0  0  0  0  0  0  0
   -2.2798    0.3270   -1.0054 H   0  0  0  0  0  0  0  0  0  0  0  0
    2.2343    2.0945    1.3160 H   0  0  0  0  0  0  0  0  0  0  0  0
    3.2948    2.5730   -0.8876 H   0  0  0  0  0  0  0  0  0  0  0  0
    5.0621    1.5040    0.3133 H   0  0  0  0  0  0  0  0  0  0  0  0
    6.3335   -0.5580    0.7495 H   0  0  0  0  0  0  0  0  0  0  0  0
    3.1151   -2.8717   -0.8486 H   0  0  0  0  0  0  0  0  0  0  0  0
    1.8476   -0.8054   -1.2760 H   0  0  0  0  0  0  0  0  0  0  0  0
    5.2706   -3.2754    1.1100 H   0  0  0  0  0  0  0  0  0  0  0  0
    1.3729    0.7441   -1.9055 H   0  0  0  0  0  0  0  0  0  0  0  0
    0.4223    3.2819   -0.8309 H   0  0  0  0  0  0  0  0  0  0  0  0
    0.1461    3.4549    0.9190 H   0  0  0  0  0  0  0  0  0  0  0  0
    1.6039    4.1543    0.1747 H   0  0  0  0  0  0  0  0  0  0  0  0
  1  2  1  0  0  0  0
  2  3  1  0  0  0  0
  3  4  1  0  0  0  0
  4  5  2  0  0  0  0
  5  6  1  0  0  0  0
  6  7  2  0  0  0  0
  7  8  1  0  0  0  0
  3  8  2  0  0  0  0
  1  9  1  0  0  0  0
  9 10  1  0  0  0  0
 10 11  1  0  0  0  0
 11 12  1  0  0  0  0
 12 13  1  0  0  0  0
  1 13  1  0  0  0  0
 11 14  1  0  0  0  0
 14 15  1  0  0  0  0
 15 16  1  0  0  0  0
 16 17  1  0  0  0  0
 17 18  2  0  0  0  0
 18 19  1  0  0  0  0
 19 20  2  0  0  0  0
 20 21  1  0  0  0  0
 16 21  2  0  0  0  0
 19 22  1  0  0  0  0
 15 23  1  0  0  0  0
 14 24  1  0  0  0  0
  1 25  1  0  0  0  0
  2 26  1  0  0  0  0
  2 27  1  0  0  0  0
  4 28  1  0  0  0  0
  5 29  1  0  0  0  0
  6 30  1  0  0  0  0
  7 31  1  0  0  0  0
  8 32  1  0  0  0  0
  9 33  1  0  0  0  0
  9 34  1  0  0  0  0
 10 35  1  0  0  0  0
 10 36  1  0  0  0  0
 12 37  1  0  0  0  0
 12 38  1  0  0  0  0
 13 39  1  0  0  0  0
 13 40  1  0  0  0  0
 14 41  1  0  0  0  0
 15 42  1  0  0  0  0
 17 43  1  0  0  0  0
 18 44  1  0  0  0  0
 20 45  1  0  0  0  0
 21 46  1  0  0  0  0
 22 47  1  0  0  0  0
 23 48  1  0  0  0  0
 24 49  1  0  0  0  0
 24 50  1  0  0  0  0
 24 51  1  0  0  0  0
M  END
> <UNIQUE_SMILES>
CC(C(O)C1=CC=C(O)C=C1)N2CCC(CC2)CC3=CC=CC=C3

> <USER_SUPPLIED_SMILES>
C2(Cc1ccccc1)CCN(CC2)C(C(c3ccc(cc3)O)O)C

$$$$
C14H22N2O
APtclcactv12272117193D 0   0.00000     0.00000    30
 
 39 39  0  0  0  0  0  0  0  0999 V2000
    1.8725   -0.2196    0.3597 C   0  0  0  0  0  0  0  0  0  0  0  0
    0.6135   -0.5869    0.8477 N   0  0  0  0  0  0  0  0  0  0  0  0
   -0.5012   -0.1930    0.2006 C   0  0  0  0  0  0  0  0  0  0  0  0
   -1.8558   -0.6184    0.7059 C   0  0  0  0  0  0  0  0  0  0  0  0
   -2.8999   -0.0635   -0.1658 N   0  0  0  0  0  0  0  0  0  0  0  0
   -4.1622   -0.7039    0.2271 C   0  0  0  0  0  0  0  0  0  0  0  0
   -4.2026   -2.1313   -0.3223 C   0  0  0  0  0  0  0  0  0  0  0  0
   -3.0239    1.3595    0.1771 C   0  0  0  0  0  0  0  0  0  0  0  0
   -3.7940    2.0852   -0.9279 C   0  0  0  0  0  0  0  0  0  0  0  0
   -0.4142    0.5039   -0.7883 O   0  0  0  0  0  0  0  0  0  0  0  0
    2.7432   -1.1896   -0.1192 C   0  0  0  0  0  0  0  0  0  0  0  0
    3.9852   -0.8238   -0.6002 C   0  0  0  0  0  0  0  0  0  0  0  0
    4.3620    0.5067   -0.6048 C   0  0  0  0  0  0  0  0  0  0  0  0
    3.4973    1.4750   -0.1286 C   0  0  0  0  0  0  0  0  0  0  0  0
    2.2515    1.1164    0.3479 C   0  0  0  0  0  0  0  0  0  0  0  0
    1.3095    2.1723    0.8662 C   0  0  0  0  0  0  0  0  0  0  0  0
    2.3337   -2.6399   -0.1137 C   0  0  0  0  0  0  0  0  0  0  0  0
    0.5431   -1.1250    1.6516 H   0  0  0  0  0  0  0  0  0  0  0  0
   -1.9197   -1.7065    0.7021 H   0  0  0  0  0  0  0  0  0  0  0  0
   -1.9968   -0.2497    1.7219 H   0  0  0  0  0  0  0  0  0  0  0  0
   -4.2328   -0.7311    1.3145 H   0  0  0  0  0  0  0  0  0  0  0  0
   -4.9995   -0.1351   -0.1772 H   0  0  0  0  0  0  0  0  0  0  0  0
   -5.1842   -2.5657   -0.1334 H   0  0  0  0  0  0  0  0  0  0  0  0
   -4.0139   -2.1129   -1.3957 H   0  0  0  0  0  0  0  0  0  0  0  0
   -3.4383   -2.7321    0.1706 H   0  0  0  0  0  0  0  0  0  0  0  0
   -3.5605    1.4605    1.1205 H   0  0  0  0  0  0  0  0  0  0  0  0
   -2.0306    1.7974    0.2755 H   0  0  0  0  0  0  0  0  0  0  0  0
   -3.8029    3.1556   -0.7218 H   0  0  0  0  0  0  0  0  0  0  0  0
   -3.3097    1.9040   -1.8875 H   0  0  0  0  0  0  0  0  0  0  0  0
   -4.8180    1.7132   -0.9617 H   0  0  0  0  0  0  0  0  0  0  0  0
    4.6628   -1.5777   -0.9728 H   0  0  0  0  0  0  0  0  0  0  0  0
    5.3340    0.7901   -0.9808 H   0  0  0  0  0  0  0  0  0  0  0  0
    3.7945    2.5132   -0.1336 H   0  0  0  0  0  0  0  0  0  0  0  0
    0.7623    2.6120    0.0324 H   0  0  0  0  0  0  0  0  0  0  0  0
    0.6055    1.7199    1.5646 H   0  0  0  0  0  0  0  0  0  0  0  0
    1.8794    2.9487    1.3766 H   0  0  0  0  0  0  0  0  0  0  0  0
    1.8380   -2.8810   -1.0540 H   0  0  0  0  0  0  0  0  0  0  0  0
    3.2179   -3.2667    0.0021 H   0  0  0  0  0  0  0  0  0  0  0  0
    1.6490   -2.8209    0.7149 H   0  0  0  0  0  0  0  0  0  0  0  0
  1  2  1  0  0  0  0
  2  3  1  0  0  0  0
  3  4  1  0  0  0  0
  4  5  1  0  0  0  0
  5  6  1  0  0  0  0
  6  7  1  0  0  0  0
  5  8  1  0  0  0  0
  8  9  1  0  0  0  0
  3 10  2  0  0  0  0
  1 11  1  0  0  0  0
 11 12  2  0  0  0  0
 12 13  1  0  0  0  0
 13 14  2  0  0  0  0
 14 15  1  0  0  0  0
  1 15  2  0  0  0  0
 15 16  1  0  0  0  0
 11 17  1  0  0  0  0
  2 18  1  0  0  0  0
  4 19  1  0  0  0  0
  4 20  1  0  0  0  0
  6 21  1  0  0  0  0
  6 22  1  0  0  0  0
  7 23  1  0  0  0  0
  7 24  1  0  0  0  0
  7 25  1  0  0  0  0
  8 26  1  0  0  0  0
  8 27  1  0  0  0  0
  9 28  1  0  0  0  0
  9 29  1  0  0  0  0
  9 30  1  0  0  0  0
 12 31  1  0  0  0  0
 13 32  1  0  0  0  0
 14 33  1  0  0  0  0
 16 34  1  0  0  0  0
 16 35  1  0  0  0  0
 16 36  1  0  0  0  0
 17 37  1  0  0  0  0
 17 38  1  0  0  0  0
 17 39  1  0  0  0  0
M  END
> <UNIQUE_SMILES>
CCN(CC)CC(=O)NC1=C(C)C=CC=C1C

> <USER_SUPPLIED_SMILES>
c1(NC(CN(CC)CC)=O)c(cccc1C)C

$$$$
C37H48N4O5
APtclcactv12272117193D 0   0.00000     0.00000    31
 
 94 97  0  0  1  0  0  0  0  0999 V2000
    5.4264    0.3417    1.5652 N   0  0  0  0  0  0  0  0  0  0  0  0
    4.0560   -0.1762    1.5763 C   0  0  2  0  0  0  0  0  0  0  0  0
    4.0628   -1.2148    1.9070 H   0  0  0  0  0  0  0  0  0  0  0  0
    3.4770   -0.0950    0.1874 C   0  0  0  0  0  0  0  0  0  0  0  0
    2.2788   -0.6525   -0.0769 N   0  0  0  0  0  0  0  0  0  0  0  0
    1.7737   -0.6860   -1.4516 C   0  0  1  0  0  0  0  0  0  0  0  0
    2.2862    0.0708   -2.0456 H   0  0  0  0  0  0  0  0  0  0  0  0
    2.0300   -2.0682   -2.0556 C   0  0  0  0  0  0  0  0  0  0  0  0
    3.5148   -2.2986   -2.1708 C   0  0  0  0  0  0  0  0  0  0  0  0
    4.2068   -2.8819   -1.1259 C   0  0  0  0  0  0  0  0  0  0  0  0
    5.5688   -3.0932   -1.2314 C   0  0  0  0  0  0  0  0  0  0  0  0
    6.2387   -2.7216   -2.3821 C   0  0  0  0  0  0  0  0  0  0  0  0
    5.5466   -2.1391   -3.4273 C   0  0  0  0  0  0  0  0  0  0  0  0
    4.1838   -1.9318   -3.3235 C   0  0  0  0  0  0  0  0  0  0  0  0
    0.2704   -0.4010   -1.4497 C   0  0  0  0  0  0  0  0  0  0  0  0
    0.0269    1.0498   -1.0295 C   0  0  1  0  0  0  0  0  0  0  0  0
    0.6052    1.7156   -1.6702 H   0  0  0  0  0  0  0  0  0  0  0  0
   -1.4615    1.3771   -1.1652 C   0  0  2  0  0  0  0  0  0  0  0  0
   -1.7701    1.2424   -2.2019 H   0  0  0  0  0  0  0  0  0  0  0  0
   -1.7050    2.8280   -0.7450 C   0  0  0  0  0  0  0  0  0  0  0  0
   -3.1470    3.1879   -0.9942 C   0  0  0  0  0  0  0  0  0  0  0  0
   -4.0908    2.9859   -0.0047 C   0  0  0  0  0  0  0  0  0  0  0  0
   -5.4136    3.3159   -0.2334 C   0  0  0  0  0  0  0  0  0  0  0  0
   -5.7924    3.8485   -1.4515 C   0  0  0  0  0  0  0  0  0  0  0  0
   -4.8484    4.0514   -2.4407 C   0  0  0  0  0  0  0  0  0  0  0  0
   -3.5249    3.7254   -2.2105 C   0  0  0  0  0  0  0  0  0  0  0  0
   -2.2387    0.4823   -0.3041 N   0  0  0  0  0  0  0  0  0  0  0  0
   -3.5268    0.2154   -0.5976 C   0  0  0  0  0  0  0  0  0  0  0  0
   -4.3263   -0.7051    0.2882 C   0  0  0  0  0  0  0  0  0  0  0  0
   -5.6531   -0.8290   -0.2278 O   0  0  0  0  0  0  0  0  0  0  0  0
   -6.3228   -1.6660    0.6075 C   0  0  0  0  0  0  0  0  0  0  0  0
   -7.0111   -1.1549    1.6983 C   0  0  0  0  0  0  0  0  0  0  0  0
   -7.6910   -2.0079    2.5460 C   0  0  0  0  0  0  0  0  0  0  0  0
   -7.6860   -3.3699    2.3080 C   0  0  0  0  0  0  0  0  0  0  0  0
   -7.0005   -3.8818    1.2218 C   0  0  0  0  0  0  0  0  0  0  0  0
   -6.3241   -3.0324    0.3677 C   0  0  0  0  0  0  0  0  0  0  0  0
   -5.5772   -3.5910   -0.8160 C   0  0  0  0  0  0  0  0  0  0  0  0
   -7.0165    0.3294    1.9585 C   0  0  0  0  0  0  0  0  0  0  0  0
   -4.0424    0.7160   -1.5745 O   0  0  0  0  0  0  0  0  0  0  0  0
    0.4315    1.2264    0.3296 O   0  0  0  0  0  0  0  0  0  0  0  0
    4.0894    0.4721   -0.6927 O   0  0  0  0  0  0  0  0  0  0  0  0
    3.2032    0.6584    2.5340 C   0  0  0  0  0  0  0  0  0  0  0  0
    1.7998    0.0556    2.6243 C   0  0  0  0  0  0  0  0  0  0  0  0
    3.8478    0.6601    3.9215 C   0  0  0  0  0  0  0  0  0  0  0  0
    5.6395    1.6299    1.2579 C   0  0  0  0  0  0  0  0  0  0  0  0
    6.8667    2.1699    1.2175 N   0  0  0  0  0  0  0  0  0  0  0  0
    8.0582    1.3761    1.5225 C   0  0  0  0  0  0  0  0  0  0  0  0
    7.7948   -0.0879    1.1543 C   0  0  0  0  0  0  0  0  0  0  0  0
    6.5347   -0.5556    1.8956 C   0  0  0  0  0  0  0  0  0  0  0  0
    4.6823    2.3360    1.0056 O   0  0  0  0  0  0  0  0  0  0  0  0
    1.7509   -1.0316    0.6432 H   0  0  0  0  0  0  0  0  0  0  0  0
    1.5924   -2.8323   -1.4131 H   0  0  0  0  0  0  0  0  0  0  0  0
    1.5761   -2.1221   -3.0452 H   0  0  0  0  0  0  0  0  0  0  0  0
    3.6834   -3.1722   -0.2269 H   0  0  0  0  0  0  0  0  0  0  0  0
    6.1095   -3.5483   -0.4148 H   0  0  0  0  0  0  0  0  0  0  0  0
    7.3030   -2.8861   -2.4643 H   0  0  0  0  0  0  0  0  0  0  0  0
    6.0701   -1.8485   -4.3262 H   0  0  0  0  0  0  0  0  0  0  0  0
    3.6431   -1.4767   -4.1401 H   0  0  0  0  0  0  0  0  0  0  0  0
   -0.1311   -0.5618   -2.4502 H   0  0  0  0  0  0  0  0  0  0  0  0
   -0.2255   -1.0709   -0.7472 H   0  0  0  0  0  0  0  0  0  0  0  0
   -1.4803    2.9417    0.3155 H   0  0  0  0  0  0  0  0  0  0  0  0
   -1.0603    3.4876   -1.3258 H   0  0  0  0  0  0  0  0  0  0  0  0
   -3.7949    2.5698    0.9470 H   0  0  0  0  0  0  0  0  0  0  0  0
   -6.1511    3.1574    0.5395 H   0  0  0  0  0  0  0  0  0  0  0  0
   -6.8259    4.1058   -1.6304 H   0  0  0  0  0  0  0  0  0  0  0  0
   -5.1444    4.4672   -3.3925 H   0  0  0  0  0  0  0  0  0  0  0  0
   -2.7874    3.8839   -2.9834 H   0  0  0  0  0  0  0  0  0  0  0  0
   -1.8263    0.0820    0.4773 H   0  0  0  0  0  0  0  0  0  0  0  0
   -3.8531   -1.6867    0.3134 H   0  0  0  0  0  0  0  0  0  0  0  0
   -4.3657   -0.2947    1.2972 H   0  0  0  0  0  0  0  0  0  0  0  0
   -8.2266   -1.6105    3.3954 H   0  0  0  0  0  0  0  0  0  0  0  0
   -8.2182   -4.0351    2.9719 H   0  0  0  0  0  0  0  0  0  0  0  0
   -6.9975   -4.9461    1.0385 H   0  0  0  0  0  0  0  0  0  0  0  0
   -6.2423   -3.6330   -1.6785 H   0  0  0  0  0  0  0  0  0  0  0  0
   -4.7261   -2.9494   -1.0443 H   0  0  0  0  0  0  0  0  0  0  0  0
   -5.2228   -4.5948   -0.5813 H   0  0  0  0  0  0  0  0  0  0  0  0
   -7.8615    0.7856    1.4428 H   0  0  0  0  0  0  0  0  0  0  0  0
   -7.1040    0.5102    3.0299 H   0  0  0  0  0  0  0  0  0  0  0  0
   -6.0878    0.7661    1.5911 H   0  0  0  0  0  0  0  0  0  0  0  0
   -0.0797    0.5978    0.8573 H   0  0  0  0  0  0  0  0  0  0  0  0
    3.1361    1.6813    2.1633 H   0  0  0  0  0  0  0  0  0  0  0  0
    1.8656   -0.9621    3.0091 H   0  0  0  0  0  0  0  0  0  0  0  0
    1.1878    0.6587    3.2950 H   0  0  0  0  0  0  0  0  0  0  0  0
    1.3462    0.0408    1.6333 H   0  0  0  0  0  0  0  0  0  0  0  0
    3.9990   -0.3672    4.2531 H   0  0  0  0  0  0  0  0  0  0  0  0
    4.8090    1.1720    3.8750 H   0  0  0  0  0  0  0  0  0  0  0  0
    3.1948    1.1766    4.6250 H   0  0  0  0  0  0  0  0  0  0  0  0
    6.9667    3.1053    0.9810 H   0  0  0  0  0  0  0  0  0  0  0  0
    8.9032    1.7507    0.9447 H   0  0  0  0  0  0  0  0  0  0  0  0
    8.2822    1.4495    2.5867 H   0  0  0  0  0  0  0  0  0  0  0  0
    7.6432   -0.1731    0.0782 H   0  0  0  0  0  0  0  0  0  0  0  0
    8.6446   -0.6999    1.4565 H   0  0  0  0  0  0  0  0  0  0  0  0
    6.7168   -0.5387    2.9701 H   0  0  0  0  0  0  0  0  0  0  0  0
    6.2837   -1.5694    1.5836 H   0  0  0  0  0  0  0  0  0  0  0  0
  1  2  1  0  0  0  0
  2  3  1  0  0  0  0
  2  4  1  0  0  0  0
  4  5  1  0  0  0  0
  5  6  1  0  0  0  0
  6  7  1  0  0  0  0
  6  8  1  0  0  0  0
  8  9  1  0  0  0  0
  9 10  1  0  0  0  0
 10 11  2  0  0  0  0
 11 12  1  0  0  0  0
 12 13  2  0  0  0  0
 13 14  1  0  0  0  0
  9 14  2  0  0  0  0
  6 15  1  0  0  0  0
 15 16  1  0  0  0  0
 16 17  1  0  0  0  0
 16 18  1  0  0  0  0
 18 19  1  0  0  0  0
 18 20  1  0  0  0  0
 20 21  1  0  0  0  0
 21 22  1  0  0  0  0
 22 23  2  0  0  0  0
 23 24  1  0  0  0  0
 24 25  2  0  0  0  0
 25 26  1  0  0  0  0
 21 26  2  0  0  0  0
 18 27  1  0  0  0  0
 27 28  1  0  0  0  0
 28 29  1  0  0  0  0
 29 30  1  0  0  0  0
 30 31  1  0  0  0  0
 31 32  1  0  0  0  0
 32 33  2  0  0  0  0
 33 34  1  0  0  0  0
 34 35  2  0  0  0  0
 35 36  1  0  0  0  0
 31 36  2  0  0  0  0
 36 37  1  0  0  0  0
 32 38  1  0  0  0  0
 28 39  2  0  0  0  0
 16 40  1  0  0  0  0
  4 41  2  0  0  0  0
  2 42  1  0  0  0  0
 42 43  1  0  0  0  0
 42 44  1  0  0  0  0
  1 45  1  0  0  0  0
 45 46  1  0  0  0  0
 46 47  1  0  0  0  0
 47 48  1  0  0  0  0
 48 49  1  0  0  0  0
  1 49  1  0  0  0  0
 45 50  2  0  0  0  0
  5 51  1  0  0  0  0
  8 52  1  0  0  0  0
  8 53  1  0  0  0  0
 10 54  1  0  0  0  0
 11 55  1  0  0  0  0
 12 56  1  0  0  0  0
 13 57  1  0  0  0  0
 14 58  1  0  0  0  0
 15 59  1  0  0  0  0
 15 60  1  0  0  0  0
 20 61  1  0  0  0  0
 20 62  1  0  0  0  0
 22 63  1  0  0  0  0
 23 64  1  0  0  0  0
 24 65  1  0  0  0  0
 25 66  1  0  0  0  0
 26 67  1  0  0  0  0
 27 68  1  0  0  0  0
 29 69  1  0  0  0  0
 29 70  1  0  0  0  0
 33 71  1  0  0  0  0
 34 72  1  0  0  0  0
 35 73  1  0  0  0  0
 37 74  1  0  0  0  0
 37 75  1  0  0  0  0
 37 76  1  0  0  0  0
 38 77  1  0  0  0  0
 38 78  1  0  0  0  0
 38 79  1  0  0  0  0
 40 80  1  0  0  0  0
 42 81  1  0  0  0  0
 43 82  1  0  0  0  0
 43 83  1  0  0  0  0
 43 84  1  0  0  0  0
 44 85  1  0  0  0  0
 44 86  1  0  0  0  0
 44 87  1  0  0  0  0
 46 88  1  0  0  0  0
 47 89  1  0  0  0  0
 47 90  1  0  0  0  0
 48 91  1  0  0  0  0
 48 92  1  0  0  0  0
 49 93  1  0  0  0  0
 49 94  1  0  0  0  0
M  END
> <UNIQUE_SMILES>
CC(C)[C@H](N1CCCNC1=O)C(=O)N[C@H](C[C@H](O)[C@H](CC2=CC=CC=C2)NC(=O)COC3=C(C)C=CC=C3C)CC4=CC=CC=C4

> <USER_SUPPLIED_SMILES>
N4([C@H](C(N[C@@H](Cc1ccccc1)C[C@@H]([C@H](Cc2ccccc2)NC(COc3c(cccc3C)C)=O)O)=O)C(C)C)C(NCCC4)=O

$$$$
C23H27N3O6
APtclcactv12272117193D 0   0.00000     0.00000    32
 
 59 62  0  0  1  0  0  0  0  0999 V2000
    2.1748   -0.3042   -0.2804 C   0  0  0  0  0  0  0  0  0  0  0  0
    2.4044   -1.7868   -0.4551 C   0  0  2  0  0  0  0  0  0  0  0  0
    1.5708   -2.2235   -1.0052 H   0  0  0  0  0  0  0  0  0  0  0  0
    2.5146   -2.4269    0.8625 N   0  0  0  0  0  0  0  0  0  0  0  0
    1.1448   -2.7179    1.3063 C   0  0  0  0  0  0  0  0  0  0  0  0
    0.9540   -3.8587    2.3078 C   0  0  0  0  0  0  0  0  0  0  0  0
    0.7929   -2.4067    2.7624 C   0  0  0  0  0  0  0  0  0  0  0  0
    3.7042   -1.9938   -1.2414 C   0  0  2  0  0  0  0  0  0  0  0  0
    4.0550   -3.0182   -1.1158 H   0  0  0  0  0  0  0  0  0  0  0  0
    4.7384   -1.0135   -0.6717 C   0  0  0  0  0  0  0  0  0  0  0  0
    4.3810    0.3069   -1.0516 O   0  0  0  0  0  0  0  0  0  0  0  0
    3.1539    0.6257   -0.5743 C   0  0  0  0  0  0  0  0  0  0  0  0
    2.8851    1.9820   -0.3789 C   0  0  0  0  0  0  0  0  0  0  0  0
    1.6592    2.3948    0.0940 C   0  0  0  0  0  0  0  0  0  0  0  0
    0.6760    1.4575    0.3806 C   0  0  0  0  0  0  0  0  0  0  0  0
    0.9411    0.1093    0.1948 C   0  0  0  0  0  0  0  0  0  0  0  0
   -0.5748    1.8710    0.8578 N   0  0  0  0  0  0  0  0  0  0  0  0
   -1.6870    1.1957    0.5065 C   0  0  0  0  0  0  0  0  0  0  0  0
   -3.0152    1.5616    1.1173 C   0  0  0  0  0  0  0  0  0  0  0  0
   -4.0888    0.6623    0.5608 C   0  0  0  0  0  0  0  0  0  0  0  0
   -4.3870   -0.5301    1.1941 C   0  0  0  0  0  0  0  0  0  0  0  0
   -5.3708   -1.3562    0.6859 C   0  0  0  0  0  0  0  0  0  0  0  0
   -6.0596   -0.9885   -0.4608 C   0  0  0  0  0  0  0  0  0  0  0  0
   -5.7585    0.2084   -1.0944 C   0  0  0  0  0  0  0  0  0  0  0  0
   -4.7778    1.0337   -0.5790 C   0  0  0  0  0  0  0  0  0  0  0  0
   -7.0275   -1.7997   -0.9630 O   0  0  0  0  0  0  0  0  0  0  0  0
   -7.5427   -1.1548   -2.1295 C   0  0  0  0  0  0  0  0  0  0  0  0
   -1.6189    0.2934   -0.3013 O   0  0  0  0  0  0  0  0  0  0  0  0
    1.3905    3.8361    0.2970 N   0  3  0  0  0  0  0  0  0  0  0  0
    2.2771    4.6520    0.1186 O   0  0  0  0  0  0  0  0  0  0  0  0
    0.2827    4.2064    0.6424 O   0  5  0  0  0  0  0  0  0  0  0  0
    4.7582   -1.1196    0.8545 C   0  0  0  0  0  0  0  0  0  0  0  0
    6.1233   -1.3493   -1.2285 C   0  0  0  0  0  0  0  0  0  0  0  0
    3.4840   -1.7212   -2.6267 O   0  0  0  0  0  0  0  0  0  0  0  0
    2.9670   -3.3168    0.7156 H   0  0  0  0  0  0  0  0  0  0  0  0
    0.3666   -2.5702    0.5575 H   0  0  0  0  0  0  0  0  0  0  0  0
    0.0502   -4.4613    2.2181 H   0  0  0  0  0  0  0  0  0  0  0  0
    1.8449   -4.3933    2.6374 H   0  0  0  0  0  0  0  0  0  0  0  0
    1.5777   -1.9861    3.3910 H   0  0  0  0  0  0  0  0  0  0  0  0
   -0.2170   -2.0541    2.9718 H   0  0  0  0  0  0  0  0  0  0  0  0
    3.6467    2.7150   -0.6007 H   0  0  0  0  0  0  0  0  0  0  0  0
    0.1790   -0.6229    0.4172 H   0  0  0  0  0  0  0  0  0  0  0  0
   -0.6402    2.6433    1.4411 H   0  0  0  0  0  0  0  0  0  0  0  0
   -2.9636    1.4393    2.1992 H   0  0  0  0  0  0  0  0  0  0  0  0
   -3.2509    2.5989    0.8798 H   0  0  0  0  0  0  0  0  0  0  0  0
   -3.8503   -0.8160    2.0865 H   0  0  0  0  0  0  0  0  0  0  0  0
   -5.6031   -2.2876    1.1807 H   0  0  0  0  0  0  0  0  0  0  0  0
   -6.2933    0.4968   -1.9872 H   0  0  0  0  0  0  0  0  0  0  0  0
   -4.5432    1.9657   -1.0716 H   0  0  0  0  0  0  0  0  0  0  0  0
   -8.3263   -1.7716   -2.5695 H   0  0  0  0  0  0  0  0  0  0  0  0
   -7.9553   -0.1838   -1.8556 H   0  0  0  0  0  0  0  0  0  0  0  0
   -6.7393   -1.0172   -2.8533 H   0  0  0  0  0  0  0  0  0  0  0  0
    5.0240   -2.1361    1.1446 H   0  0  0  0  0  0  0  0  0  0  0  0
    5.4931   -0.4228    1.2576 H   0  0  0  0  0  0  0  0  0  0  0  0
    3.7716   -0.8755    1.2485 H   0  0  0  0  0  0  0  0  0  0  0  0
    6.1074   -1.2686   -2.3153 H   0  0  0  0  0  0  0  0  0  0  0  0
    6.8567   -0.6523   -0.8230 H   0  0  0  0  0  0  0  0  0  0  0  0
    6.3926   -2.3664   -0.9436 H   0  0  0  0  0  0  0  0  0  0  0  0
    4.3274   -1.8649   -3.0774 H   0  0  0  0  0  0  0  0  0  0  0  0
  1  2  1  0  0  0  0
  2  3  1  0  0  0  0
  2  4  1  0  0  0  0
  4  5  1  0  0  0  0
  5  6  1  0  0  0  0
  6  7  1  0  0  0  0
  5  7  1  0  0  0  0
  2  8  1  0  0  0  0
  8  9  1  0  0  0  0
  8 10  1  0  0  0  0
 10 11  1  0  0  0  0
 11 12  1  0  0  0  0
  1 12  1  0  0  0  0
 12 13  2  0  0  0  0
 13 14  1  0  0  0  0
 14 15  2  0  0  0  0
 15 16  1  0  0  0  0
  1 16  2  0  0  0  0
 15 17  1  0  0  0  0
 17 18  1  0  0  0  0
 18 19  1  0  0  0  0
 19 20  1  0  0  0  0
 20 21  1  0  0  0  0
 21 22  2  0  0  0  0
 22 23  1  0  0  0  0
 23 24  2  0  0  0  0
 24 25  1  0  0  0  0
 20 25  2  0  0  0  0
 23 26  1  0  0  0  0
 26 27  1  0  0  0  0
 18 28  2  0  0  0  0
 14 29  1  0  0  0  0
 29 30  2  0  0  0  0
 29 31  1  0  0  0  0
 10 32  1  0  0  0  0
 10 33  1  0  0  0  0
  8 34  1  0  0  0  0
  4 35  1  0  0  0  0
  5 36  1  0  0  0  0
  6 37  1  0  0  0  0
  6 38  1  0  0  0  0
  7 39  1  0  0  0  0
  7 40  1  0  0  0  0
 13 41  1  0  0  0  0
 16 42  1  0  0  0  0
 17 43  1  0  0  0  0
 19 44  1  0  0  0  0
 19 45  1  0  0  0  0
 21 46  1  0  0  0  0
 22 47  1  0  0  0  0
 24 48  1  0  0  0  0
 25 49  1  0  0  0  0
 27 50  1  0  0  0  0
 27 51  1  0  0  0  0
 27 52  1  0  0  0  0
 32 53  1  0  0  0  0
 32 54  1  0  0  0  0
 32 55  1  0  0  0  0
 33 56  1  0  0  0  0
 33 57  1  0  0  0  0
 33 58  1  0  0  0  0
 34 59  1  0  0  0  0
M  CHG  2  29   1  31  -1
M  END
> <UNIQUE_SMILES>
COC1=CC=C(CC(=O)NC2=C(C=C3OC(C)(C)[C@H](O)[C@@H](NC4CC4)C3=C2)[N+]([O-])=O)C=C1

> <USER_SUPPLIED_SMILES>
c23[C@H](NC1CC1)[C@H](C(Oc2cc(c(c3)NC(Cc4ccc(cc4)OC)=O)[N+](=O)[O-])(C)C)O

$$$$
