amiodarone_p
  Mrv2011 02102113443D          

 61 63  0  0  0  0            999 V2000
   -1.0215    2.3381   -1.3577 I   0  0  0  0  0  0  0  0  0  0  0  0
   -0.4111   -2.9274    1.5155 I   0  0  0  0  0  0  0  0  0  0  0  0
    0.9258    5.3563    4.1654 O   0  0  0  0  0  0  0  0  0  0  0  0
   -0.5634   -0.8121   -0.8822 O   0  0  0  0  0  0  0  0  0  0  0  0
   -0.4939    1.2368    5.0977 O   0  0  0  0  0  0  0  0  0  0  0  0
    2.1317   -2.7841   -2.6130 N   0  3  2  0  0  0  0  0  0  0  0  0
    1.6678    3.9767    2.2957 C   0  0  2  0  0  0  0  0  0  0  0  0
    0.8726    4.1477    3.5423 C   0  0  0  0  0  0  0  0  0  0  0  0
   -0.0060    3.2904    4.2513 C   0  0  0  0  0  0  0  0  0  0  0  0
    2.6870    2.8058    2.2391 C   0  0  2  0  0  0  0  0  0  0  0  0
   -0.4926    4.0726    5.3111 C   0  0  0  0  0  0  0  0  0  0  0  0
    0.1087    5.3261    5.2327 C   0  0  0  0  0  0  0  0  0  0  0  0
    0.7709   -2.1647   -2.4114 C   0  0  1  0  0  0  0  0  0  0  0  0
    3.4106    2.7637    0.8624 C   0  0  2  0  0  0  0  0  0  0  0  0
   -0.3443    1.9126    4.0508 C   0  0  0  0  0  0  0  0  0  0  0  0
    2.4324   -3.1082   -4.0494 C   0  0  1  0  0  0  0  0  0  0  0  0
    2.3721   -3.9412   -1.6738 C   0  0  1  0  0  0  0  0  0  0  0  0
    0.7897   -1.0559   -1.3317 C   0  0  2  0  0  0  0  0  0  0  0  0
   -1.4207    3.8067    6.3431 C   0  0  0  0  0  0  0  0  0  0  0  0
   -0.5120    1.2268    2.8076 C   0  0  0  0  0  0  0  0  0  0  0  0
   -0.1633    6.3430    6.1638 C   0  0  0  0  0  0  0  0  0  0  0  0
    4.4220    1.6062    0.7260 C   0  0  0  0  0  0  0  0  0  0  0  0
    2.6897   -1.8559   -4.9228 C   0  0  0  0  0  0  0  0  0  0  0  0
    3.8607   -4.2814   -1.4258 C   0  0  0  0  0  0  0  0  0  0  0  0
   -0.6198   -0.1515    0.3144 C   0  0  0  0  0  0  0  0  0  0  0  0
   -1.7054    4.8138    7.2904 C   0  0  0  0  0  0  0  0  0  0  0  0
   -1.0791    6.0752    7.2019 C   0  0  0  0  0  0  0  0  0  0  0  0
   -0.8051    1.9099    1.6058 C   0  0  0  0  0  0  0  0  0  0  0  0
   -0.3979   -0.1867    2.7392 C   0  0  0  0  0  0  0  0  0  0  0  0
   -0.7990    1.2440    0.3657 C   0  0  0  0  0  0  0  0  0  0  0  0
   -0.4905   -0.8727    1.5164 C   0  0  0  0  0  0  0  0  0  0  0  0
    2.2341    4.8993    2.1487 H   0  0  0  0  0  0  0  0  0  0  0  0
    0.9941    3.9183    1.4438 H   0  0  0  0  0  0  0  0  0  0  0  0
    2.1775    1.8544    2.3959 H   0  0  0  0  0  0  0  0  0  0  0  0
    3.4263    2.9287    3.0335 H   0  0  0  0  0  0  0  0  0  0  0  0
    0.3828   -1.7022   -3.3196 H   0  0  0  0  0  0  0  0  0  0  0  0
    0.0430   -2.9330   -2.1350 H   0  0  0  0  0  0  0  0  0  0  0  0
    3.9444    3.7049    0.7066 H   0  0  0  0  0  0  0  0  0  0  0  0
    2.6662    2.6602    0.0679 H   0  0  0  0  0  0  0  0  0  0  0  0
    3.3436   -3.7049   -4.1181 H   0  0  0  0  0  0  0  0  0  0  0  0
    1.6229   -3.6993   -4.4886 H   0  0  0  0  0  0  0  0  0  0  0  0
    1.9624   -3.7099   -0.6876 H   0  0  0  0  0  0  0  0  0  0  0  0
    1.8560   -4.8382   -2.0294 H   0  0  0  0  0  0  0  0  0  0  0  0
    1.4424   -1.3728   -0.5140 H   0  0  0  0  0  0  0  0  0  0  0  0
    1.2100   -0.1398   -1.7559 H   0  0  0  0  0  0  0  0  0  0  0  0
   -1.8942    2.9054    6.4144 H   0  0  0  0  0  0  0  0  0  0  0  0
    0.2896    7.2556    6.0892 H   0  0  0  0  0  0  0  0  0  0  0  0
    4.8976    1.6505   -0.2571 H   0  0  0  0  0  0  0  0  0  0  0  0
    3.9108    0.6463    0.8259 H   0  0  0  0  0  0  0  0  0  0  0  0
    5.1969    1.6836    1.4918 H   0  0  0  0  0  0  0  0  0  0  0  0
    3.1144   -2.1545   -5.8843 H   0  0  0  0  0  0  0  0  0  0  0  0
    3.3940   -1.1884   -4.4220 H   0  0  0  0  0  0  0  0  0  0  0  0
    1.7661   -1.3118   -5.1206 H   0  0  0  0  0  0  0  0  0  0  0  0
    3.9460   -4.9642   -0.5768 H   0  0  0  0  0  0  0  0  0  0  0  0
    4.4232   -3.3732   -1.2014 H   0  0  0  0  0  0  0  0  0  0  0  0
    4.3034   -4.7728   -2.2919 H   0  0  0  0  0  0  0  0  0  0  0  0
   -2.3718    4.6307    8.0455 H   0  0  0  0  0  0  0  0  0  0  0  0
   -1.2915    6.7982    7.8927 H   0  0  0  0  0  0  0  0  0  0  0  0
   -1.0191    2.9065    1.6261 H   0  0  0  0  0  0  0  0  0  0  0  0
   -0.2373   -0.7403    3.5828 H   0  0  0  0  0  0  0  0  0  0  0  0
    2.8093   -2.0659   -2.3471 H   0  0  0  0  0  0  0  0  0  0  0  0
  1 30  1  0  0  0  0
  2 31  1  0  0  0  0
  3  8  1  0  0  0  0
  3 12  1  0  0  0  0
  4 18  1  0  0  0  0
  4 25  1  0  0  0  0
  5 15  2  0  0  0  0
  6 13  1  0  0  0  0
  6 16  1  0  0  0  0
  6 17  1  0  0  0  0
  7  8  1  0  0  0  0
  7 10  1  0  0  0  0
  8  9  2  0  0  0  0
  9 11  1  0  0  0  0
  9 15  1  0  0  0  0
 10 14  1  0  0  0  0
 11 12  1  0  0  0  0
 11 19  2  0  0  0  0
 12 21  2  0  0  0  0
 13 18  1  0  0  0  0
 14 22  1  0  0  0  0
 15 20  1  0  0  0  0
 16 23  1  0  0  0  0
 17 24  1  0  0  0  0
 19 26  1  0  0  0  0
 20 28  2  0  0  0  0
 20 29  1  0  0  0  0
 21 27  1  0  0  0  0
 25 30  2  0  0  0  0
 25 31  1  0  0  0  0
 26 27  2  0  0  0  0
 28 30  1  0  0  0  0
 29 31  2  0  0  0  0
  7 32  1  0  0  0  0
  7 33  1  0  0  0  0
 10 34  1  0  0  0  0
 10 35  1  0  0  0  0
 13 36  1  0  0  0  0
 13 37  1  0  0  0  0
 14 38  1  0  0  0  0
 14 39  1  0  0  0  0
 16 40  1  0  0  0  0
 16 41  1  0  0  0  0
 17 42  1  0  0  0  0
 17 43  1  0  0  0  0
 18 44  1  0  0  0  0
 18 45  1  0  0  0  0
 19 46  1  0  0  0  0
 21 47  1  0  0  0  0
 22 48  1  0  0  0  0
 22 49  1  0  0  0  0
 22 50  1  0  0  0  0
 23 51  1  0  0  0  0
 23 52  1  0  0  0  0
 23 53  1  0  0  0  0
 24 54  1  0  0  0  0
 24 55  1  0  0  0  0
 24 56  1  0  0  0  0
 26 57  1  0  0  0  0
 27 58  1  0  0  0  0
 28 59  1  0  0  0  0
 29 60  1  0  0  0  0
  6 61  1  0  0  0  0
M  CHG  1   6   1
M  END
$$$$
astemizole_p
  Mrv2011 02102113453D          

 66 70  0  0  0  0            999 V2000
   -8.4433   -2.7542    4.6557 F   0  0  0  0  0  0  0  0  0  0  0  0
    0.4834  -12.6834   15.6404 O   0  0  0  0  0  0  0  0  0  0  0  0
   -2.3112   -8.1893    9.7225 N   0  3  2  0  0  0  0  0  0  0  0  0
   -2.8905   -5.5169    6.4062 N   0  0  0  0  0  0  0  0  0  0  0  0
   -2.1959   -3.2392    6.0285 N   0  0  0  0  0  0  0  0  0  0  0  0
   -0.9770   -4.8755    5.1257 N   0  0  0  0  0  0  0  0  0  0  0  0
   -2.3948   -6.6392    7.1498 C   0  0  2  0  0  0  0  0  0  0  0  0
   -3.5722   -7.5354    7.6223 C   0  0  2  0  0  0  0  0  0  0  0  0
   -1.5825   -6.1652    8.3932 C   0  0  1  0  0  0  0  0  0  0  0  0
   -3.0859   -8.6922    8.5388 C   0  0  2  0  0  0  0  0  0  0  0  0
   -1.1432   -7.3538    9.2834 C   0  0  2  0  0  0  0  0  0  0  0  0
   -1.9294   -9.2773   10.6902 C   0  0  1  0  0  0  0  0  0  0  0  0
   -1.8057   -8.7777   12.1609 C   0  0  1  0  0  0  0  0  0  0  0  0
   -2.0736   -4.5794    5.8531 C   0  0  0  0  0  0  0  0  0  0  0  0
   -1.2186   -9.7926   13.0857 C   0  0  0  0  0  0  0  0  0  0  0  0
   -1.1327   -2.6748    5.4184 C   0  0  0  0  0  0  0  0  0  0  0  0
   -3.2192   -2.5805    6.7953 C   0  0  1  0  0  0  0  0  0  0  0  0
   -0.3890   -3.7066    4.8488 C   0  0  0  0  0  0  0  0  0  0  0  0
   -0.7003   -1.3366    5.3014 C   0  0  0  0  0  0  0  0  0  0  0  0
   -4.5619   -2.6351    6.1488 C   0  0  0  0  0  0  0  0  0  0  0  0
   -1.9497  -10.3130   14.1816 C   0  0  0  0  0  0  0  0  0  0  0  0
    0.1060  -10.2518   12.8886 C   0  0  0  0  0  0  0  0  0  0  0  0
    0.7950   -3.4558    4.1356 C   0  0  0  0  0  0  0  0  0  0  0  0
    0.4926   -1.0702    4.5955 C   0  0  0  0  0  0  0  0  0  0  0  0
    1.2330   -2.1215    4.0119 C   0  0  0  0  0  0  0  0  0  0  0  0
   -1.3801  -11.2759   15.0381 C   0  0  0  0  0  0  0  0  0  0  0  0
    0.6705  -11.2221   13.7367 C   0  0  0  0  0  0  0  0  0  0  0  0
   -4.7808   -1.9331    4.9283 C   0  0  0  0  0  0  0  0  0  0  0  0
   -5.6064   -3.3593    6.7855 C   0  0  0  0  0  0  0  0  0  0  0  0
   -0.0648  -11.7316   14.8236 C   0  0  0  0  0  0  0  0  0  0  0  0
   -6.1032   -1.9202    4.3469 C   0  0  0  0  0  0  0  0  0  0  0  0
   -6.9140   -3.4014    6.2774 C   0  0  0  0  0  0  0  0  0  0  0  0
   -7.1571   -2.6684    5.0567 C   0  0  0  0  0  0  0  0  0  0  0  0
    1.1642  -12.1354   16.7841 C   0  0  0  0  0  0  0  0  0  0  0  0
   -1.7454   -7.2356    6.4998 H   0  0  0  0  0  0  0  0  0  0  0  0
   -4.0823   -7.9574    6.7519 H   0  0  0  0  0  0  0  0  0  0  0  0
   -4.2944   -6.9251    8.1743 H   0  0  0  0  0  0  0  0  0  0  0  0
   -0.6875   -5.6258    8.0706 H   0  0  0  0  0  0  0  0  0  0  0  0
   -2.1939   -5.4782    8.9860 H   0  0  0  0  0  0  0  0  0  0  0  0
   -3.9724   -9.2341    8.8789 H   0  0  0  0  0  0  0  0  0  0  0  0
   -2.4739   -9.3867    7.9545 H   0  0  0  0  0  0  0  0  0  0  0  0
   -0.4264   -7.9633    8.7239 H   0  0  0  0  0  0  0  0  0  0  0  0
   -0.6167   -6.9431   10.1476 H   0  0  0  0  0  0  0  0  0  0  0  0
   -2.6874  -10.0666   10.6981 H   0  0  0  0  0  0  0  0  0  0  0  0
   -0.9978   -9.7457   10.3585 H   0  0  0  0  0  0  0  0  0  0  0  0
   -3.8498   -5.3716    6.3783 H   0  0  0  0  0  0  0  0  0  0  0  0
   -1.1860   -7.8820   12.2045 H   0  0  0  0  0  0  0  0  0  0  0  0
   -2.8050   -8.4850   12.4957 H   0  0  0  0  0  0  0  0  0  0  0  0
   -3.2304   -3.0338    7.7916 H   0  0  0  0  0  0  0  0  0  0  0  0
   -2.9790   -1.5303    6.9607 H   0  0  0  0  0  0  0  0  0  0  0  0
   -1.2308   -0.5684    5.7189 H   0  0  0  0  0  0  0  0  0  0  0  0
   -2.9041   -9.9948   14.3666 H   0  0  0  0  0  0  0  0  0  0  0  0
    0.6711   -9.8830   12.1196 H   0  0  0  0  0  0  0  0  0  0  0  0
    1.3287   -4.2227    3.7214 H   0  0  0  0  0  0  0  0  0  0  0  0
    0.8252   -0.1089    4.5058 H   0  0  0  0  0  0  0  0  0  0  0  0
    2.0907   -1.9128    3.4953 H   0  0  0  0  0  0  0  0  0  0  0  0
   -1.9241  -11.6456   15.8211 H   0  0  0  0  0  0  0  0  0  0  0  0
    1.6202  -11.5560   13.5623 H   0  0  0  0  0  0  0  0  0  0  0  0
   -3.9145   -1.4402    4.5212 H   0  0  0  0  0  0  0  0  0  0  0  0
   -5.4208   -3.8726    7.6522 H   0  0  0  0  0  0  0  0  0  0  0  0
   -6.3025   -1.4112    3.4849 H   0  0  0  0  0  0  0  0  0  0  0  0
   -7.6488   -3.9235    6.7552 H   0  0  0  0  0  0  0  0  0  0  0  0
    1.5640  -12.9644   17.3690 H   0  0  0  0  0  0  0  0  0  0  0  0
    1.9998  -11.4966   16.4880 H   0  0  0  0  0  0  0  0  0  0  0  0
    0.4828  -11.5684   17.4227 H   0  0  0  0  0  0  0  0  0  0  0  0
   -2.9409   -7.5637   10.2307 H   0  0  0  0  0  0  0  0  0  0  0  0
  1 33  1  0  0  0  0
  2 30  1  0  0  0  0
  2 34  1  0  0  0  0
  3 10  1  0  0  0  0
  3 11  1  0  0  0  0
  3 12  1  0  0  0  0
  4  7  1  0  0  0  0
  4 14  1  0  0  0  0
  5 14  1  0  0  0  0
  5 16  1  0  0  0  0
  5 17  1  0  0  0  0
  6 14  2  0  0  0  0
  6 18  1  0  0  0  0
  7  8  1  0  0  0  0
  7  9  1  0  0  0  0
  8 10  1  0  0  0  0
  9 11  1  0  0  0  0
 12 13  1  0  0  0  0
 13 15  1  0  0  0  0
 15 21  2  0  0  0  0
 15 22  1  0  0  0  0
 16 18  1  0  0  0  0
 16 19  2  0  0  0  0
 17 20  1  0  0  0  0
 18 23  2  0  0  0  0
 19 24  1  0  0  0  0
 20 28  2  0  0  0  0
 20 29  1  0  0  0  0
 21 26  1  0  0  0  0
 22 27  2  0  0  0  0
 23 25  1  0  0  0  0
 24 25  2  0  0  0  0
 26 30  2  0  0  0  0
 27 30  1  0  0  0  0
 28 31  1  0  0  0  0
 29 32  2  0  0  0  0
 31 33  2  0  0  0  0
 32 33  1  0  0  0  0
  7 35  1  0  0  0  0
  8 36  1  0  0  0  0
  8 37  1  0  0  0  0
  9 38  1  0  0  0  0
  9 39  1  0  0  0  0
 10 40  1  0  0  0  0
 10 41  1  0  0  0  0
 11 42  1  0  0  0  0
 11 43  1  0  0  0  0
 12 44  1  0  0  0  0
 12 45  1  0  0  0  0
  4 46  1  0  0  0  0
 13 47  1  0  0  0  0
 13 48  1  0  0  0  0
 17 49  1  0  0  0  0
 17 50  1  0  0  0  0
 19 51  1  0  0  0  0
 21 52  1  0  0  0  0
 22 53  1  0  0  0  0
 23 54  1  0  0  0  0
 24 55  1  0  0  0  0
 25 56  1  0  0  0  0
 26 57  1  0  0  0  0
 27 58  1  0  0  0  0
 28 59  1  0  0  0  0
 29 60  1  0  0  0  0
 31 61  1  0  0  0  0
 32 62  1  0  0  0  0
 34 63  1  0  0  0  0
 34 64  1  0  0  0  0
 34 65  1  0  0  0  0
  3 66  1  0  0  0  0
M  CHG  1   3   1
M  END
$$$$
bepridil_p
  Mrv2011 02102113463D          

 62 64  0  0  1  0            999 V2000
    0.4597   -4.3543   -3.9469 O   0  0  0  0  0  0  0  0  0  0  0  0
   -2.1407   -4.0797   -2.5921 N   0  3  1  0  0  0  0  0  0  0  0  0
   -1.1530   -1.2892   -1.1888 N   0  0  0  0  0  0  0  0  0  0  0  0
   -0.8163   -3.7522   -1.9388 C   0  0  2  0  0  0  0  0  0  0  0  0
   -2.4532   -5.5141   -2.8497 C   0  0  1  0  0  0  0  0  0  0  0  0
   -3.3549   -3.5232   -1.9283 C   0  0  1  0  0  0  0  0  0  0  0  0
   -3.9741   -5.5809   -3.0446 C   0  0  1  0  0  0  0  0  0  0  0  0
   -4.4679   -4.5880   -1.9890 C   0  0  1  0  0  0  0  0  0  0  0  0
   -0.4700   -2.2257   -2.0777 C   0  0  2  0  0  0  0  0  0  0  0  0
    0.3590   -4.5975   -2.5297 C   0  0  2  0  0  0  0  0  0  0  0  0
   -1.0145   -1.3948    0.2548 C   0  0  1  0  0  0  0  0  0  0  0  0
   -1.8892   -0.2476   -1.7254 C   0  0  0  0  0  0  0  0  0  0  0  0
    1.3287   -5.2558   -4.6582 C   0  0  1  0  0  0  0  0  0  0  0  0
    1.4532   -4.8246   -6.1476 C   0  0  1  0  0  0  0  0  0  0  0  0
    0.3993   -1.4203    0.7149 C   0  0  0  0  0  0  0  0  0  0  0  0
   -1.3186    0.6364   -2.6745 C   0  0  0  0  0  0  0  0  0  0  0  0
   -3.2361   -0.0393   -1.3394 C   0  0  0  0  0  0  0  0  0  0  0  0
    2.4571   -5.7314   -6.9118 C   0  0  0  0  0  0  0  0  0  0  0  0
    0.0749   -4.7873   -6.8657 C   0  0  0  0  0  0  0  0  0  0  0  0
    0.9117   -2.5265    1.4339 C   0  0  0  0  0  0  0  0  0  0  0  0
    1.2605   -0.3321    0.4328 C   0  0  0  0  0  0  0  0  0  0  0  0
   -2.0898    1.6457   -3.2788 C   0  0  0  0  0  0  0  0  0  0  0  0
   -4.0072    0.9776   -1.9316 C   0  0  0  0  0  0  0  0  0  0  0  0
   -3.4372    1.8134   -2.9094 C   0  0  0  0  0  0  0  0  0  0  0  0
    2.2586   -2.5543    1.8415 C   0  0  0  0  0  0  0  0  0  0  0  0
    2.6065   -0.3587    0.8442 C   0  0  0  0  0  0  0  0  0  0  0  0
    3.1057   -1.4731    1.5416 C   0  0  0  0  0  0  0  0  0  0  0  0
   -0.8707   -4.0155   -0.8792 H   0  0  0  0  0  0  0  0  0  0  0  0
   -1.9467   -5.8703   -3.7519 H   0  0  0  0  0  0  0  0  0  0  0  0
   -2.1722   -6.1470   -1.9996 H   0  0  0  0  0  0  0  0  0  0  0  0
   -3.1889   -3.2511   -0.8848 H   0  0  0  0  0  0  0  0  0  0  0  0
   -3.6688   -2.6328   -2.4773 H   0  0  0  0  0  0  0  0  0  0  0  0
   -4.2487   -5.2417   -4.0509 H   0  0  0  0  0  0  0  0  0  0  0  0
   -4.3660   -6.5887   -2.8760 H   0  0  0  0  0  0  0  0  0  0  0  0
   -4.5562   -5.0950   -1.0214 H   0  0  0  0  0  0  0  0  0  0  0  0
   -5.4359   -4.1588   -2.2579 H   0  0  0  0  0  0  0  0  0  0  0  0
    0.6013   -2.0755   -1.9141 H   0  0  0  0  0  0  0  0  0  0  0  0
   -0.6399   -1.9683   -3.1297 H   0  0  0  0  0  0  0  0  0  0  0  0
    1.2989   -4.3298   -2.0391 H   0  0  0  0  0  0  0  0  0  0  0  0
    0.1874   -5.6560   -2.3219 H   0  0  0  0  0  0  0  0  0  0  0  0
   -1.4909   -0.5570    0.7721 H   0  0  0  0  0  0  0  0  0  0  0  0
   -1.5475   -2.2860    0.5860 H   0  0  0  0  0  0  0  0  0  0  0  0
    2.3216   -5.2455   -4.1977 H   0  0  0  0  0  0  0  0  0  0  0  0
    0.9286   -6.2731   -4.6058 H   0  0  0  0  0  0  0  0  0  0  0  0
    1.8569   -3.8075   -6.1647 H   0  0  0  0  0  0  0  0  0  0  0  0
   -0.3337    0.5491   -2.9331 H   0  0  0  0  0  0  0  0  0  0  0  0
   -3.6684   -0.6357   -0.6311 H   0  0  0  0  0  0  0  0  0  0  0  0
    3.4326   -5.7134   -6.4222 H   0  0  0  0  0  0  0  0  0  0  0  0
    2.5881   -5.3780   -7.9359 H   0  0  0  0  0  0  0  0  0  0  0  0
    2.1030   -6.7636   -6.9417 H   0  0  0  0  0  0  0  0  0  0  0  0
   -0.6158   -4.1285   -6.3368 H   0  0  0  0  0  0  0  0  0  0  0  0
    0.1880   -4.4047   -7.8818 H   0  0  0  0  0  0  0  0  0  0  0  0
   -0.3658   -5.7846   -6.9153 H   0  0  0  0  0  0  0  0  0  0  0  0
    0.3092   -3.3212    1.6625 H   0  0  0  0  0  0  0  0  0  0  0  0
    0.9134    0.4815   -0.0812 H   0  0  0  0  0  0  0  0  0  0  0  0
   -1.6727    2.2555   -3.9868 H   0  0  0  0  0  0  0  0  0  0  0  0
   -4.9826    1.1069   -1.6528 H   0  0  0  0  0  0  0  0  0  0  0  0
   -3.9986    2.5479   -3.3459 H   0  0  0  0  0  0  0  0  0  0  0  0
    2.6190   -3.3614    2.3568 H   0  0  0  0  0  0  0  0  0  0  0  0
    3.2206    0.4340    0.6365 H   0  0  0  0  0  0  0  0  0  0  0  0
    4.0844   -1.4969    1.8310 H   0  0  0  0  0  0  0  0  0  0  0  0
   -2.1139   -3.6492   -3.5197 H   0  0  0  0  0  0  0  0  0  0  0  0
  1 10  1  0  0  0  0
  1 13  1  0  0  0  0
  4  2  1  0  0  0  0
  2  5  1  0  0  0  0
  2  6  1  0  0  0  0
  3  9  1  0  0  0  0
  3 11  1  0  0  0  0
  3 12  1  0  0  0  0
  4  9  1  0  0  0  0
  4 10  1  0  0  0  0
  5  7  1  0  0  0  0
  6  8  1  0  0  0  0
  7  8  1  0  0  0  0
 11 15  1  0  0  0  0
 12 16  2  0  0  0  0
 12 17  1  0  0  0  0
 13 14  1  0  0  0  0
 14 18  1  0  0  0  0
 14 19  1  0  0  0  0
 15 20  2  0  0  0  0
 15 21  1  0  0  0  0
 16 22  1  0  0  0  0
 17 23  2  0  0  0  0
 20 25  1  0  0  0  0
 21 26  2  0  0  0  0
 22 24  2  0  0  0  0
 23 24  1  0  0  0  0
 25 27  2  0  0  0  0
 26 27  1  0  0  0  0
  4 28  1  0  0  0  0
  5 29  1  0  0  0  0
  5 30  1  0  0  0  0
  6 31  1  0  0  0  0
  6 32  1  0  0  0  0
  7 33  1  0  0  0  0
  7 34  1  0  0  0  0
  8 35  1  0  0  0  0
  8 36  1  0  0  0  0
  9 37  1  0  0  0  0
  9 38  1  0  0  0  0
 10 39  1  0  0  0  0
 10 40  1  0  0  0  0
 11 41  1  0  0  0  0
 11 42  1  0  0  0  0
 13 43  1  0  0  0  0
 13 44  1  0  0  0  0
 14 45  1  0  0  0  0
 16 46  1  0  0  0  0
 17 47  1  0  0  0  0
 18 48  1  0  0  0  0
 18 49  1  0  0  0  0
 18 50  1  0  0  0  0
 19 51  1  0  0  0  0
 19 52  1  0  0  0  0
 19 53  1  0  0  0  0
 20 54  1  0  0  0  0
 21 55  1  0  0  0  0
 22 56  1  0  0  0  0
 23 57  1  0  0  0  0
 24 58  1  0  0  0  0
 25 59  1  0  0  0  0
 26 60  1  0  0  0  0
 27 61  1  0  0  0  0
  2 62  1  0  0  0  0
M  CHG  1   2   1
M  END
$$$$
ceftriaxone_p
  Mrv2011 02102114282D          

 52 55  0  0  1  0            999 V2000
    1.0208    0.7832    0.0000 S   0  0  0  0  0  0  0  0  0  0  0  0
    3.4959    0.7832    0.0000 S   0  0  0  0  0  0  0  0  0  0  0  0
   -3.4728   -2.2732    0.0000 S   0  0  0  0  0  0  0  0  0  0  0  0
    0.0924   -1.8552    0.0000 O   0  0  0  0  0  0  0  0  0  0  0  0
    3.0834   -1.3602    0.0000 O   0  5  0  0  0  0  0  0  0  0  0  0
    1.8458   -2.0746    0.0000 O   0  0  0  0  0  0  0  0  0  0  0  0
   -1.2733   -1.5103    0.0000 O   0  0  0  0  0  0  0  0  0  0  0  0
   -1.9135    0.8800    0.0000 O   0  0  0  0  0  0  0  0  0  0  0  0
    5.9709   -0.6457    0.0000 O   0  0  0  0  0  0  0  0  0  0  0  0
    6.7959    0.7832    0.0000 O   0  5  0  0  0  0  0  0  0  0  0  0
    1.0208   -0.6457    0.0000 N   0  0  0  0  0  0  0  0  0  0  0  0
   -0.9031   -0.1304    0.0000 N   0  0  0  0  0  0  0  0  0  0  0  0
    4.7334    1.4977    0.0000 N   0  0  0  0  0  0  0  0  0  0  0  0
   -2.4971    0.2970    0.0000 N   0  0  0  0  0  0  0  0  0  0  0  0
    4.7334    0.0688    0.0000 N   0  0  0  0  0  0  0  0  0  0  0  0
    5.5584    1.4977    0.0000 N   0  0  0  0  0  0  0  0  0  0  0  0
   -3.6818   -0.9543    0.0000 N   0  0  0  0  0  0  0  0  0  0  0  0
   -4.8715   -1.8189    0.0000 N   0  0  0  0  0  0  0  0  0  0  0  0
    0.6083    0.0688    0.0000 C   0  0  1  0  0  0  0  0  0  0  0  0
   -0.1062   -0.3438    0.0000 C   0  0  1  0  0  0  0  0  0  0  0  0
    0.3064   -1.0582    0.0000 C   0  0  0  0  0  0  0  0  0  0  0  0
    1.8458   -0.6457    0.0000 C   0  0  0  0  0  0  0  0  0  0  0  0
    2.2583    0.0688    0.0000 C   0  0  0  0  0  0  0  0  0  0  0  0
    1.8458    0.7832    0.0000 C   0  0  0  0  0  0  0  0  0  0  0  0
    3.0834    0.0688    0.0000 C   0  0  0  0  0  0  0  0  0  0  0  0
    2.2583   -1.3602    0.0000 C   0  0  0  0  0  0  0  0  0  0  0  0
   -1.4867   -0.7139    0.0000 C   0  0  0  0  0  0  0  0  0  0  0  0
   -2.2837   -0.5000    0.0000 C   0  0  0  0  0  0  0  0  0  0  0  0
    4.3209    0.7832    0.0000 C   0  0  0  0  0  0  0  0  0  0  0  0
   -2.8672   -1.0835    0.0000 C   0  0  0  0  0  0  0  0  0  0  0  0
   -2.7380   -1.8986    0.0000 C   0  0  0  0  0  0  0  0  0  0  0  0
    4.3209    2.2121    0.0000 C   0  0  0  0  0  0  0  0  0  0  0  0
    5.5584    0.0688    0.0000 C   0  0  0  0  0  0  0  0  0  0  0  0
    5.9709    0.7832    0.0000 C   0  0  0  0  0  0  0  0  0  0  0  0
   -4.0563   -1.6896    0.0000 C   0  0  0  0  0  0  0  0  0  0  0  0
   -2.1274    1.6770    0.0000 C   0  0  0  0  0  0  0  0  0  0  0  0
    0.1414    0.5352    0.0000 H   0  0  0  0  0  0  0  0  0  0  0  0
   -0.4362   -0.9152    0.0000 H   0  0  0  0  0  0  0  0  0  0  0  0
    1.7309    1.4333    0.0000 H   0  0  0  0  0  0  0  0  0  0  0  0
    2.4657    1.0087    0.0000 H   0  0  0  0  0  0  0  0  0  0  0  0
   -1.0742    0.5071    0.0000 H   0  0  0  0  0  0  0  0  0  0  0  0
    3.7032   -0.1573    0.0000 H   0  0  0  0  0  0  0  0  0  0  0  0
    2.9684   -0.5814    0.0000 H   0  0  0  0  0  0  0  0  0  0  0  0
   -2.1500   -2.1978    0.0000 H   0  0  0  0  0  0  0  0  0  0  0  0
    4.8924    2.5422    0.0000 H   0  0  0  0  0  0  0  0  0  0  0  0
    3.9909    2.7836    0.0000 H   0  0  0  0  0  0  0  0  0  0  0  0
    3.7489    1.8821    0.0000 H   0  0  0  0  0  0  0  0  0  0  0  0
   -1.4900    1.8480    0.0000 H   0  0  0  0  0  0  0  0  0  0  0  0
   -2.2980    2.3145    0.0000 H   0  0  0  0  0  0  0  0  0  0  0  0
   -2.7649    1.5059    0.0000 H   0  0  0  0  0  0  0  0  0  0  0  0
   -5.2867   -1.3057    0.0000 H   0  0  0  0  0  0  0  0  0  0  0  0
   -5.1080   -2.4349    0.0000 H   0  0  0  0  0  0  0  0  0  0  0  0
 19  1  1  0  0  0  0
  1 24  1  0  0  0  0
  2 25  1  0  0  0  0
  2 29  1  0  0  0  0
  3 31  1  0  0  0  0
  3 35  1  0  0  0  0
  4 21  2  0  0  0  0
  5 26  1  0  0  0  0
  6 26  2  0  0  0  0
  7 27  2  0  0  0  0
  8 14  1  0  0  0  0
  8 36  1  0  0  0  0
  9 33  2  0  0  0  0
 10 34  1  0  0  0  0
 19 11  1  0  0  0  0
 11 21  1  0  0  0  0
 11 22  1  0  0  0  0
 20 12  1  1  0  0  0
 12 27  1  0  0  0  0
 13 16  1  0  0  0  0
 13 29  1  0  0  0  0
 13 32  1  0  0  0  0
 14 28  2  0  0  0  0
 15 29  2  0  0  0  0
 15 33  1  0  0  0  0
 16 34  2  0  0  0  0
 17 30  1  0  0  0  0
 17 35  2  0  0  0  0
 18 35  1  0  0  0  0
 19 20  1  0  0  0  0
 20 21  1  0  0  0  0
 22 23  2  0  0  0  0
 22 26  1  0  0  0  0
 23 24  1  0  0  0  0
 23 25  1  0  0  0  0
 27 28  1  0  0  0  0
 28 30  1  0  0  0  0
 30 31  2  0  0  0  0
 33 34  1  0  0  0  0
 19 37  1  6  0  0  0
 20 38  1  6  0  0  0
 24 39  1  0  0  0  0
 24 40  1  0  0  0  0
 12 41  1  0  0  0  0
 25 42  1  0  0  0  0
 25 43  1  0  0  0  0
 31 44  1  0  0  0  0
 32 45  1  0  0  0  0
 32 46  1  0  0  0  0
 32 47  1  0  0  0  0
 36 48  1  0  0  0  0
 36 49  1  0  0  0  0
 36 50  1  0  0  0  0
 18 51  1  0  0  0  0
 18 52  1  0  0  0  0
M  CHG  2   5  -1  10  -1
M  END
$$$$
chlorpromazine
  Mrv2011 02102113483D          

 41 43  0  0  0  0            999 V2000
   -2.9794   -0.0734    4.7972 Cl  0  0  0  0  0  0  0  0  0  0  0  0
   -3.7086    0.9952   -1.3247 S   0  0  0  0  0  0  0  0  0  0  0  0
   -1.0646    0.6609    0.0691 N   0  0  0  0  0  0  0  0  0  0  0  0
    0.5905   -4.1220    0.5569 N   0  3  2  0  0  0  0  0  0  0  0  0
    0.0650   -0.2484    0.2291 C   0  0  2  0  0  0  0  0  0  0  0  0
   -0.3329   -1.7501    0.2001 C   0  0  2  0  0  0  0  0  0  0  0  0
    0.8973   -2.7010    0.1870 C   0  0  1  0  0  0  0  0  0  0  0  0
   -2.1769    0.5663    0.9113 C   0  0  0  0  0  0  0  0  0  0  0  0
   -1.0560    1.5906   -0.9687 C   0  0  0  0  0  0  0  0  0  0  0  0
   -3.4926    0.6774    0.3905 C   0  0  0  0  0  0  0  0  0  0  0  0
   -2.2211    1.8333   -1.7410 C   0  0  0  0  0  0  0  0  0  0  0  0
   -2.0456    0.3430    2.3056 C   0  0  0  0  0  0  0  0  0  0  0  0
    0.1070    2.3387   -1.2861 C   0  0  0  0  0  0  0  0  0  0  0  0
   -4.6242    0.5579    1.2184 C   0  0  0  0  0  0  0  0  0  0  0  0
   -2.2168    2.7466   -2.8113 C   0  0  0  0  0  0  0  0  0  0  0  0
    1.8372   -4.9302    0.7189 C   0  0  0  0  0  0  0  0  0  0  0  0
   -0.3938   -4.7967   -0.3413 C   0  0  0  0  0  0  0  0  0  0  0  0
   -3.1742    0.2152    3.1403 C   0  0  0  0  0  0  0  0  0  0  0  0
    0.1216    3.2412   -2.3651 C   0  0  0  0  0  0  0  0  0  0  0  0
   -4.4648    0.3202    2.5925 C   0  0  0  0  0  0  0  0  0  0  0  0
   -1.0382    3.4384   -3.1325 C   0  0  0  0  0  0  0  0  0  0  0  0
    0.5841   -0.0283    1.1649 H   0  0  0  0  0  0  0  0  0  0  0  0
    0.8016   -0.1216   -0.5702 H   0  0  0  0  0  0  0  0  0  0  0  0
   -0.9401   -1.9271   -0.6915 H   0  0  0  0  0  0  0  0  0  0  0  0
   -0.9393   -1.9800    1.0786 H   0  0  0  0  0  0  0  0  0  0  0  0
    1.6150   -2.3078    0.9137 H   0  0  0  0  0  0  0  0  0  0  0  0
    1.3785   -2.6602   -0.7968 H   0  0  0  0  0  0  0  0  0  0  0  0
   -1.1174    0.2739    2.7283 H   0  0  0  0  0  0  0  0  0  0  0  0
    0.9597    2.2372   -0.7293 H   0  0  0  0  0  0  0  0  0  0  0  0
   -5.5629    0.6426    0.8243 H   0  0  0  0  0  0  0  0  0  0  0  0
   -3.0699    2.9178   -3.3497 H   0  0  0  0  0  0  0  0  0  0  0  0
    2.5142   -4.4626    1.4380 H   0  0  0  0  0  0  0  0  0  0  0  0
    1.6037   -5.9241    1.1028 H   0  0  0  0  0  0  0  0  0  0  0  0
    2.3633   -5.0355   -0.2335 H   0  0  0  0  0  0  0  0  0  0  0  0
   -1.3618   -4.2988   -0.2892 H   0  0  0  0  0  0  0  0  0  0  0  0
   -0.5534   -5.8313   -0.0319 H   0  0  0  0  0  0  0  0  0  0  0  0
   -0.0490   -4.7892   -1.3770 H   0  0  0  0  0  0  0  0  0  0  0  0
    0.9787    3.7514   -2.5909 H   0  0  0  0  0  0  0  0  0  0  0  0
   -5.2937    0.2287    3.1860 H   0  0  0  0  0  0  0  0  0  0  0  0
   -1.0280    4.0915   -3.9182 H   0  0  0  0  0  0  0  0  0  0  0  0
    0.1552   -4.0940    1.4817 H   0  0  0  0  0  0  0  0  0  0  0  0
  1 18  1  0  0  0  0
  2 10  1  0  0  0  0
  2 11  1  0  0  0  0
  3  5  1  0  0  0  0
  3  8  1  0  0  0  0
  3  9  1  0  0  0  0
  4  7  1  0  0  0  0
  4 16  1  0  0  0  0
  4 17  1  0  0  0  0
  5  6  1  0  0  0  0
  6  7  1  0  0  0  0
  8 10  2  0  0  0  0
  8 12  1  0  0  0  0
  9 11  2  0  0  0  0
  9 13  1  0  0  0  0
 10 14  1  0  0  0  0
 11 15  1  0  0  0  0
 12 18  2  0  0  0  0
 13 19  2  0  0  0  0
 14 20  2  0  0  0  0
 15 21  2  0  0  0  0
 18 20  1  0  0  0  0
 19 21  1  0  0  0  0
  5 22  1  0  0  0  0
  5 23  1  0  0  0  0
  6 24  1  0  0  0  0
  6 25  1  0  0  0  0
  7 26  1  0  0  0  0
  7 27  1  0  0  0  0
 12 28  1  0  0  0  0
 13 29  1  0  0  0  0
 14 30  1  0  0  0  0
 15 31  1  0  0  0  0
 16 32  1  0  0  0  0
 16 33  1  0  0  0  0
 16 34  1  0  0  0  0
 17 35  1  0  0  0  0
 17 36  1  0  0  0  0
 17 37  1  0  0  0  0
 19 38  1  0  0  0  0
 20 39  1  0  0  0  0
 21 40  1  0  0  0  0
  4 41  1  0  0  0  0
M  CHG  1   4   1
M  END
$$$$
Clozapine_p
  Mrv2011 02102114293D          

 43 46  0  0  0  0            999 V2000
    1.2355    0.0991   -0.5710 C   0  0  0  0  0  0  0  0  0  0  0  0
    1.7702    1.2974   -1.0831 C   0  0  0  0  0  0  0  0  0  0  0  0
    3.1072    1.4212   -1.5623 C   0  0  0  0  0  0  0  0  0  0  0  0
    4.1065    0.5080   -1.4429 N   0  0  0  0  0  0  0  0  0  0  0  0
    1.9120   -0.8686   -0.0567 N   0  0  0  0  0  0  0  0  0  0  0  0
    4.2533   -0.4742   -0.5225 C   0  0  0  0  0  0  0  0  0  0  0  0
    3.1913   -1.1243    0.1485 C   0  0  0  0  0  0  0  0  0  0  0  0
    3.5185    2.6097   -2.2090 C   0  0  0  0  0  0  0  0  0  0  0  0
    2.6650    3.7177   -2.3025 C   0  0  0  0  0  0  0  0  0  0  0  0
    1.3767    3.6449   -1.7579 C   0  0  0  0  0  0  0  0  0  0  0  0
    0.9411    2.4526   -1.1535 C   0  0  0  0  0  0  0  0  0  0  0  0
    3.4823   -2.1462    1.0818 C   0  0  0  0  0  0  0  0  0  0  0  0
    4.8149   -2.4926    1.3808 C   0  0  0  0  0  0  0  0  0  0  0  0
    5.8669   -1.8409    0.7137 C   0  0  0  0  0  0  0  0  0  0  0  0
    5.5851   -0.8498   -0.2412 C   0  0  0  0  0  0  0  0  0  0  0  0
   -0.0983   -0.1411   -0.5804 N   0  0  0  0  0  0  0  0  0  0  0  0
   -0.8260   -0.4231    0.6405 C   0  0  2  0  0  0  0  0  0  0  0  0
   -1.5322   -1.7979    0.5209 C   0  0  2  0  0  0  0  0  0  0  0  0
   -2.3850   -1.8486   -0.7088 N   0  3  1  0  0  0  0  0  0  0  0  0
   -1.6037   -1.5334   -1.9487 C   0  0  1  0  0  0  0  0  0  0  0  0
   -0.8532   -0.1806   -1.8172 C   0  0  2  0  0  0  0  0  0  0  0  0
    5.1515   -3.6829    2.5381 Cl  0  0  0  0  0  0  0  0  0  0  0  0
   -3.1655   -3.1169   -0.8165 C   0  0  0  0  0  0  0  0  0  0  0  0
    4.8766    0.6565   -2.0145 H   0  0  0  0  0  0  0  0  0  0  0  0
    4.4599    2.6918   -2.6037 H   0  0  0  0  0  0  0  0  0  0  0  0
    2.9886    4.5774   -2.7536 H   0  0  0  0  0  0  0  0  0  0  0  0
    0.7585    4.4596   -1.8042 H   0  0  0  0  0  0  0  0  0  0  0  0
   -0.0041    2.4468   -0.7621 H   0  0  0  0  0  0  0  0  0  0  0  0
    2.7191   -2.6428    1.5537 H   0  0  0  0  0  0  0  0  0  0  0  0
    6.8392   -2.0814    0.9168 H   0  0  0  0  0  0  0  0  0  0  0  0
    6.3663   -0.3924   -0.7220 H   0  0  0  0  0  0  0  0  0  0  0  0
   -1.5766    0.3582    0.7980 H   0  0  0  0  0  0  0  0  0  0  0  0
   -0.1798   -0.4354    1.5255 H   0  0  0  0  0  0  0  0  0  0  0  0
   -2.1471   -1.9454    1.4137 H   0  0  0  0  0  0  0  0  0  0  0  0
   -0.7776   -2.5912    0.4956 H   0  0  0  0  0  0  0  0  0  0  0  0
   -0.8719   -2.3248   -2.1472 H   0  0  0  0  0  0  0  0  0  0  0  0
   -2.2791   -1.4692   -2.8085 H   0  0  0  0  0  0  0  0  0  0  0  0
   -0.2152   -0.0525   -2.6984 H   0  0  0  0  0  0  0  0  0  0  0  0
   -1.5809    0.6376   -1.8183 H   0  0  0  0  0  0  0  0  0  0  0  0
   -2.5097   -3.9798   -0.9646 H   0  0  0  0  0  0  0  0  0  0  0  0
   -3.7551   -3.2816    0.0897 H   0  0  0  0  0  0  0  0  0  0  0  0
   -3.8651   -3.0599   -1.6545 H   0  0  0  0  0  0  0  0  0  0  0  0
   -3.0770   -1.1014   -0.6055 H   0  0  0  0  0  0  0  0  0  0  0  0
  1  2  1  0  0  0  0
  1  5  2  0  0  0  0
  1 16  1  0  0  0  0
  2  3  2  0  0  0  0
  2 11  1  0  0  0  0
  3  4  1  0  0  0  0
  3  8  1  0  0  0  0
  4  6  1  0  0  0  0
  5  7  1  0  0  0  0
  6  7  2  0  0  0  0
  6 15  1  0  0  0  0
  7 12  1  0  0  0  0
  8  9  2  0  0  0  0
  9 10  1  0  0  0  0
 10 11  2  0  0  0  0
 12 13  2  0  0  0  0
 13 14  1  0  0  0  0
 13 22  1  0  0  0  0
 14 15  2  0  0  0  0
 16 17  1  0  0  0  0
 16 21  1  0  0  0  0
 17 18  1  0  0  0  0
 18 19  1  0  0  0  0
 19 20  1  0  0  0  0
 19 23  1  0  0  0  0
 20 21  1  0  0  0  0
  4 24  1  0  0  0  0
  8 25  1  0  0  0  0
  9 26  1  0  0  0  0
 10 27  1  0  0  0  0
 11 28  1  0  0  0  0
 12 29  1  0  0  0  0
 14 30  1  0  0  0  0
 15 31  1  0  0  0  0
 17 32  1  0  0  0  0
 17 33  1  0  0  0  0
 18 34  1  0  0  0  0
 18 35  1  0  0  0  0
 20 36  1  0  0  0  0
 20 37  1  0  0  0  0
 21 38  1  0  0  0  0
 21 39  1  0  0  0  0
 23 40  1  0  0  0  0
 23 41  1  0  0  0  0
 23 42  1  0  0  0  0
 19 43  1  0  0  0  0
M  CHG  1  19   1
M  END
$$$$
cisapride_p
  Mrv2011 02102113493D          

 62 64  0  0  1  0            999 V2000
   11.3119   -2.7657    2.8111 Cl  0  0  0  0  0  0  0  0  0  0  0  0
   -6.5614    5.3847    1.3684 F   0  0  0  0  0  0  0  0  0  0  0  0
    2.4260   -2.9788    3.4159 O   0  0  0  0  0  0  0  0  0  0  0  0
   -2.9305    1.5198    2.8367 O   0  0  0  0  0  0  0  0  0  0  0  0
    6.4672   -2.9523    0.5450 O   0  0  0  0  0  0  0  0  0  0  0  0
    5.7309   -3.8023    4.6215 O   0  0  0  0  0  0  0  0  0  0  0  0
    1.6990   -0.3768    2.1024 N   0  3  1  0  0  0  0  0  0  0  0  0
    4.8657   -3.2489    2.0857 N   0  0  0  0  0  0  0  0  0  0  0  0
   10.2339   -2.7833    5.5837 N   0  0  0  0  0  0  0  0  0  0  0  0
    3.8670   -2.3739    1.5330 C   0  0  1  0  0  0  0  0  0  0  0  0
    2.4314   -2.7953    1.9780 C   0  0  2  0  0  0  0  0  0  0  0  0
    4.1816   -0.9329    2.0391 C   0  0  2  0  0  0  0  0  0  0  0  0
    1.3952   -1.7216    1.5075 C   0  0  2  0  0  0  0  0  0  0  0  0
    3.0671    0.0805    1.6867 C   0  0  2  0  0  0  0  0  0  0  0  0
    0.6737    0.6890    1.8301 C   0  0  1  0  0  0  0  0  0  0  0  0
   -0.6919    0.5200    2.5526 C   0  0  1  0  0  0  0  0  0  0  0  0
    6.1846   -3.2600    1.7295 C   0  0  0  0  0  0  0  0  0  0  0  0
   -1.6031    1.7548    2.3254 C   0  0  1  0  0  0  0  0  0  0  0  0
    1.2495   -3.5821    3.9840 C   0  0  0  0  0  0  0  0  0  0  0  0
    7.2285   -3.4090    2.7043 C   0  0  0  0  0  0  0  0  0  0  0  0
    6.9770   -3.5638    4.0974 C   0  0  0  0  0  0  0  0  0  0  0  0
    8.5826   -3.2338    2.3088 C   0  0  0  0  0  0  0  0  0  0  0  0
   -3.8187    2.4977    2.4672 C   0  0  0  0  0  0  0  0  0  0  0  0
    8.0160   -3.3696    5.0309 C   0  0  0  0  0  0  0  0  0  0  0  0
    9.6523   -3.0498    3.2454 C   0  0  0  0  0  0  0  0  0  0  0  0
    9.3268   -3.0707    4.6202 C   0  0  0  0  0  0  0  0  0  0  0  0
   -4.0524    3.6103    3.3025 C   0  0  0  0  0  0  0  0  0  0  0  0
   -4.5222    2.3855    1.2483 C   0  0  0  0  0  0  0  0  0  0  0  0
    5.4683   -5.1889    4.9043 C   0  0  0  0  0  0  0  0  0  0  0  0
   -4.9889    4.5939    2.9285 C   0  0  0  0  0  0  0  0  0  0  0  0
   -5.4562    3.3689    0.8724 C   0  0  0  0  0  0  0  0  0  0  0  0
   -5.6923    4.4741    1.7136 C   0  0  0  0  0  0  0  0  0  0  0  0
    3.9130   -2.3872    0.4386 H   0  0  0  0  0  0  0  0  0  0  0  0
    2.2083   -3.7536    1.4954 H   0  0  0  0  0  0  0  0  0  0  0  0
    5.1213   -0.5864    1.5989 H   0  0  0  0  0  0  0  0  0  0  0  0
    4.3156   -0.9444    3.1253 H   0  0  0  0  0  0  0  0  0  0  0  0
    1.4046   -1.6635    0.4137 H   0  0  0  0  0  0  0  0  0  0  0  0
    0.3967   -2.0538    1.7933 H   0  0  0  0  0  0  0  0  0  0  0  0
    3.3164    1.0187    2.1910 H   0  0  0  0  0  0  0  0  0  0  0  0
    3.0875    0.2692    0.6089 H   0  0  0  0  0  0  0  0  0  0  0  0
    1.0700    1.6537    2.1652 H   0  0  0  0  0  0  0  0  0  0  0  0
    0.5006    0.7705    0.7525 H   0  0  0  0  0  0  0  0  0  0  0  0
    4.6112   -3.7372    2.8785 H   0  0  0  0  0  0  0  0  0  0  0  0
   -1.2056   -0.3652    2.1720 H   0  0  0  0  0  0  0  0  0  0  0  0
   -0.5220    0.3864    3.6242 H   0  0  0  0  0  0  0  0  0  0  0  0
   -1.6391    1.9555    1.2489 H   0  0  0  0  0  0  0  0  0  0  0  0
   -1.1651    2.6217    2.8320 H   0  0  0  0  0  0  0  0  0  0  0  0
    1.4732   -3.8825    5.0069 H   0  0  0  0  0  0  0  0  0  0  0  0
    0.9384   -4.4684    3.4264 H   0  0  0  0  0  0  0  0  0  0  0  0
    0.4331   -2.8603    4.0179 H   0  0  0  0  0  0  0  0  0  0  0  0
    8.8320   -3.1820    1.3197 H   0  0  0  0  0  0  0  0  0  0  0  0
    7.8034   -3.4203    6.0297 H   0  0  0  0  0  0  0  0  0  0  0  0
   -3.5398    3.7066    4.1819 H   0  0  0  0  0  0  0  0  0  0  0  0
   -4.3508    1.5888    0.6304 H   0  0  0  0  0  0  0  0  0  0  0  0
   11.1323   -2.4993    5.3510 H   0  0  0  0  0  0  0  0  0  0  0  0
    9.9819   -2.8428    6.5186 H   0  0  0  0  0  0  0  0  0  0  0  0
    4.4475   -5.2718    5.2794 H   0  0  0  0  0  0  0  0  0  0  0  0
    5.5485   -5.8030    4.0047 H   0  0  0  0  0  0  0  0  0  0  0  0
    6.1432   -5.5769    5.6717 H   0  0  0  0  0  0  0  0  0  0  0  0
   -5.1568    5.3938    3.5424 H   0  0  0  0  0  0  0  0  0  0  0  0
   -5.9614    3.2759   -0.0116 H   0  0  0  0  0  0  0  0  0  0  0  0
    1.7230   -0.4977    3.1185 H   0  0  0  0  0  0  0  0  0  0  0  0
  1 25  1  0  0  0  0
  2 32  1  0  0  0  0
 11  3  1  0  0  0  0
  3 19  1  0  0  0  0
  4 18  1  0  0  0  0
  4 23  1  0  0  0  0
  5 17  2  0  0  0  0
  6 21  1  0  0  0  0
  6 29  1  0  0  0  0
  7 13  1  0  0  0  0
  7 14  1  0  0  0  0
  7 15  1  0  0  0  0
 10  8  1  0  0  0  0
  8 17  1  0  0  0  0
  9 26  1  0  0  0  0
 10 11  1  0  0  0  0
 10 12  1  0  0  0  0
 11 13  1  0  0  0  0
 12 14  1  0  0  0  0
 15 16  1  0  0  0  0
 16 18  1  0  0  0  0
 17 20  1  0  0  0  0
 20 21  2  0  0  0  0
 20 22  1  0  0  0  0
 21 24  1  0  0  0  0
 22 25  2  0  0  0  0
 23 27  2  0  0  0  0
 23 28  1  0  0  0  0
 24 26  2  0  0  0  0
 25 26  1  0  0  0  0
 27 30  1  0  0  0  0
 28 31  2  0  0  0  0
 30 32  2  0  0  0  0
 31 32  1  0  0  0  0
 10 33  1  0  0  0  0
 11 34  1  0  0  0  0
 12 35  1  0  0  0  0
 12 36  1  0  0  0  0
 13 37  1  0  0  0  0
 13 38  1  0  0  0  0
 14 39  1  0  0  0  0
 14 40  1  0  0  0  0
 15 41  1  0  0  0  0
 15 42  1  0  0  0  0
  8 43  1  0  0  0  0
 16 44  1  0  0  0  0
 16 45  1  0  0  0  0
 18 46  1  0  0  0  0
 18 47  1  0  0  0  0
 19 48  1  0  0  0  0
 19 49  1  0  0  0  0
 19 50  1  0  0  0  0
 22 51  1  0  0  0  0
 24 52  1  0  0  0  0
 27 53  1  0  0  0  0
 28 54  1  0  0  0  0
  9 55  1  0  0  0  0
  9 56  1  0  0  0  0
 29 57  1  0  0  0  0
 29 58  1  0  0  0  0
 29 59  1  0  0  0  0
 30 60  1  0  0  0  0
 31 61  1  0  0  0  0
  7 62  1  0  0  0  0
M  CHG  1   7   1
M  END
$$$$
diltiazem_p
  Mrv2011 02102113503D          

 56 58  0  0  1  0            999 V2000
    6.0896    1.3407   -2.0368 S   0  0  0  0  0  0  0  0  0  0  0  0
    5.3381    0.2445    0.5607 O   0  0  0  0  0  0  0  0  0  0  0  0
    4.2746   -2.4132   -1.4654 O   0  0  0  0  0  0  0  0  0  0  0  0
   12.0649   -1.0034   -0.2732 O   0  0  0  0  0  0  0  0  0  0  0  0
    4.1254    0.8906    2.3174 O   0  0  0  0  0  0  0  0  0  0  0  0
    3.2136   -0.4477   -1.1708 N   0  0  0  0  0  0  0  0  0  0  0  0
    0.6598   -2.4858    1.0026 N   0  3  2  0  0  0  0  0  0  0  0  0
    6.5298   -0.3461   -1.5331 C   0  0  2  0  0  0  0  0  0  0  0  0
    5.5805   -0.8017   -0.4023 C   0  0  2  0  0  0  0  0  0  0  0  0
    4.3209   -1.2354   -1.0323 C   0  0  0  0  0  0  0  0  0  0  0  0
    1.9787   -1.0001   -0.5909 C   0  0  2  0  0  0  0  0  0  0  0  0
    3.2250    0.7241   -1.9785 C   0  0  0  0  0  0  0  0  0  0  0  0
    7.9661   -0.4966   -1.1356 C   0  0  0  0  0  0  0  0  0  0  0  0
    4.3742    1.4712   -2.4421 C   0  0  0  0  0  0  0  0  0  0  0  0
    2.0304   -2.0959    0.5274 C   0  0  2  0  0  0  0  0  0  0  0  0
    1.9615    1.2046   -2.4544 C   0  0  0  0  0  0  0  0  0  0  0  0
    4.2096    2.5586   -3.3379 C   0  0  0  0  0  0  0  0  0  0  0  0
    8.6725    0.4876   -0.3991 C   0  0  0  0  0  0  0  0  0  0  0  0
    8.6554   -1.6856   -1.4840 C   0  0  0  0  0  0  0  0  0  0  0  0
    1.8163    2.3138   -3.2980 C   0  0  0  0  0  0  0  0  0  0  0  0
    2.9466    2.9878   -3.7529 C   0  0  0  0  0  0  0  0  0  0  0  0
   10.0364    0.3187   -0.0895 C   0  0  0  0  0  0  0  0  0  0  0  0
   10.0125   -1.8630   -1.1615 C   0  0  0  0  0  0  0  0  0  0  0  0
    0.6482   -3.0453    2.3877 C   0  0  0  0  0  0  0  0  0  0  0  0
   -0.0713   -3.3859    0.0545 C   0  0  0  0  0  0  0  0  0  0  0  0
   10.7185   -0.8522   -0.4819 C   0  0  0  0  0  0  0  0  0  0  0  0
    5.0174    0.1285    1.8806 C   0  0  0  0  0  0  0  0  0  0  0  0
    5.7181   -0.7669    2.8160 C   0  0  0  0  0  0  0  0  0  0  0  0
   12.4206   -1.3764    1.0682 C   0  0  0  0  0  0  0  0  0  0  0  0
    6.3740   -0.9516   -2.4348 H   0  0  0  0  0  0  0  0  0  0  0  0
    6.0060   -1.6701    0.1103 H   0  0  0  0  0  0  0  0  0  0  0  0
    1.3946   -1.4009   -1.4222 H   0  0  0  0  0  0  0  0  0  0  0  0
    1.4146   -0.1781   -0.1381 H   0  0  0  0  0  0  0  0  0  0  0  0
    2.5495   -2.9919    0.1836 H   0  0  0  0  0  0  0  0  0  0  0  0
    2.6143   -1.6820    1.3528 H   0  0  0  0  0  0  0  0  0  0  0  0
    1.0811    0.7482   -2.2146 H   0  0  0  0  0  0  0  0  0  0  0  0
    5.0122    3.0745   -3.7101 H   0  0  0  0  0  0  0  0  0  0  0  0
    8.2065    1.3443   -0.0905 H   0  0  0  0  0  0  0  0  0  0  0  0
    8.1722   -2.4381   -1.9824 H   0  0  0  0  0  0  0  0  0  0  0  0
    0.8869    2.6238   -3.5894 H   0  0  0  0  0  0  0  0  0  0  0  0
    2.8523    3.7885   -4.3813 H   0  0  0  0  0  0  0  0  0  0  0  0
   10.5340    1.0568    0.4157 H   0  0  0  0  0  0  0  0  0  0  0  0
   10.4872   -2.7281   -1.4336 H   0  0  0  0  0  0  0  0  0  0  0  0
    1.0661   -2.3276    3.0958 H   0  0  0  0  0  0  0  0  0  0  0  0
   -0.3761   -3.2476    2.7076 H   0  0  0  0  0  0  0  0  0  0  0  0
    1.2227   -3.9721    2.4446 H   0  0  0  0  0  0  0  0  0  0  0  0
   -0.1901   -2.9258   -0.9248 H   0  0  0  0  0  0  0  0  0  0  0  0
   -1.0757   -3.5974    0.4221 H   0  0  0  0  0  0  0  0  0  0  0  0
    0.4564   -4.3330   -0.0753 H   0  0  0  0  0  0  0  0  0  0  0  0
    5.0576   -1.5877    3.0999 H   0  0  0  0  0  0  0  0  0  0  0  0
    6.6261   -1.1738    2.3673 H   0  0  0  0  0  0  0  0  0  0  0  0
    6.0003   -0.2146    3.7146 H   0  0  0  0  0  0  0  0  0  0  0  0
   13.4980   -1.5408    1.0943 H   0  0  0  0  0  0  0  0  0  0  0  0
   12.1835   -0.5796    1.7763 H   0  0  0  0  0  0  0  0  0  0  0  0
   11.9290   -2.3017    1.3772 H   0  0  0  0  0  0  0  0  0  0  0  0
    0.1486   -1.6152    1.0336 H   0  0  0  0  0  0  0  0  0  0  0  0
  8  1  1  0  0  0  0
  1 14  1  0  0  0  0
  9  2  1  0  0  0  0
  2 27  1  0  0  0  0
  3 10  2  0  0  0  0
  4 26  1  0  0  0  0
  4 29  1  0  0  0  0
  5 27  2  0  0  0  0
  6 10  1  0  0  0  0
  6 11  1  0  0  0  0
  6 12  1  0  0  0  0
  7 15  1  0  0  0  0
  7 24  1  0  0  0  0
  7 25  1  0  0  0  0
  8  9  1  0  0  0  0
  8 13  1  0  0  0  0
  9 10  1  0  0  0  0
 11 15  1  0  0  0  0
 12 14  2  0  0  0  0
 12 16  1  0  0  0  0
 13 18  2  0  0  0  0
 13 19  1  0  0  0  0
 14 17  1  0  0  0  0
 16 20  2  0  0  0  0
 17 21  2  0  0  0  0
 18 22  1  0  0  0  0
 19 23  2  0  0  0  0
 20 21  1  0  0  0  0
 22 26  2  0  0  0  0
 23 26  1  0  0  0  0
 27 28  1  0  0  0  0
  8 30  1  0  0  0  0
  9 31  1  0  0  0  0
 11 32  1  0  0  0  0
 11 33  1  0  0  0  0
 15 34  1  0  0  0  0
 15 35  1  0  0  0  0
 16 36  1  0  0  0  0
 17 37  1  0  0  0  0
 18 38  1  0  0  0  0
 19 39  1  0  0  0  0
 20 40  1  0  0  0  0
 21 41  1  0  0  0  0
 22 42  1  0  0  0  0
 23 43  1  0  0  0  0
 24 44  1  0  0  0  0
 24 45  1  0  0  0  0
 24 46  1  0  0  0  0
 25 47  1  0  0  0  0
 25 48  1  0  0  0  0
 25 49  1  0  0  0  0
 28 50  1  0  0  0  0
 28 51  1  0  0  0  0
 28 52  1  0  0  0  0
 29 53  1  0  0  0  0
 29 54  1  0  0  0  0
 29 55  1  0  0  0  0
  7 56  1  0  0  0  0
M  CHG  1   7   1
M  END
$$$$
disopyramide_p
  Mrv2011 02102113513D          

 55 56  0  0  1  0            999 V2000
   -2.4023   -3.3659    6.7110 O   0  0  0  0  0  0  0  0  0  0  0  0
   -1.1892   -6.1441    3.2647 N   0  3  1  0  0  0  0  0  0  0  0  0
   -5.1351   -3.8244    3.7517 N   0  0  0  0  0  0  0  0  0  0  0  0
   -0.9439   -2.0772    5.6797 N   0  0  0  0  0  0  0  0  0  0  0  0
   -3.0037   -2.7410    4.4380 C   0  0  1  0  0  0  0  0  0  0  0  0
   -2.3302   -3.7973    3.4602 C   0  0  1  0  0  0  0  0  0  0  0  0
   -2.3180   -5.3093    3.8466 C   0  0  2  0  0  0  0  0  0  0  0  0
   -0.8555   -7.3360    4.1568 C   0  0  1  0  0  0  0  0  0  0  0  0
   -1.3303   -6.4348    1.7620 C   0  0  2  0  0  0  0  0  0  0  0  0
   -3.0547   -1.3234    3.8573 C   0  0  0  0  0  0  0  0  0  0  0  0
   -4.4465   -3.1283    4.7045 C   0  0  0  0  0  0  0  0  0  0  0  0
   -2.1207   -2.7375    5.6637 C   0  0  0  0  0  0  0  0  0  0  0  0
   -0.2805   -6.9507    5.5552 C   0  0  0  0  0  0  0  0  0  0  0  0
   -2.0219   -8.3561    4.3074 C   0  0  0  0  0  0  0  0  0  0  0  0
   -0.4046   -7.5578    1.1859 C   0  0  0  0  0  0  0  0  0  0  0  0
   -1.1070   -5.1664    0.8663 C   0  0  0  0  0  0  0  0  0  0  0  0
   -2.7487   -1.0061    2.4997 C   0  0  0  0  0  0  0  0  0  0  0  0
   -3.4003   -0.2160    4.6857 C   0  0  0  0  0  0  0  0  0  0  0  0
   -5.1704   -2.7741    5.8738 C   0  0  0  0  0  0  0  0  0  0  0  0
   -2.7940    0.3099    2.0035 C   0  0  0  0  0  0  0  0  0  0  0  0
   -3.4319    1.1053    4.2005 C   0  0  0  0  0  0  0  0  0  0  0  0
   -6.5215   -3.1410    6.0132 C   0  0  0  0  0  0  0  0  0  0  0  0
   -3.1256    1.3696    2.8582 C   0  0  0  0  0  0  0  0  0  0  0  0
   -6.4303   -4.2127    3.8505 C   0  0  0  0  0  0  0  0  0  0  0  0
   -7.1598   -3.8741    4.9997 C   0  0  0  0  0  0  0  0  0  0  0  0
   -2.8724   -3.7553    2.5197 H   0  0  0  0  0  0  0  0  0  0  0  0
   -1.2989   -3.4906    3.2693 H   0  0  0  0  0  0  0  0  0  0  0  0
   -2.2745   -5.3277    4.9301 H   0  0  0  0  0  0  0  0  0  0  0  0
   -3.2772   -5.7615    3.5752 H   0  0  0  0  0  0  0  0  0  0  0  0
   -0.0159   -7.8745    3.7131 H   0  0  0  0  0  0  0  0  0  0  0  0
   -2.3499   -6.7865    1.5748 H   0  0  0  0  0  0  0  0  0  0  0  0
    0.2500   -7.7997    5.9927 H   0  0  0  0  0  0  0  0  0  0  0  0
    0.4225   -6.1223    5.4566 H   0  0  0  0  0  0  0  0  0  0  0  0
   -1.0635   -6.6648    6.2587 H   0  0  0  0  0  0  0  0  0  0  0  0
   -2.4148   -8.6420    3.3325 H   0  0  0  0  0  0  0  0  0  0  0  0
   -1.6769   -9.2602    4.8119 H   0  0  0  0  0  0  0  0  0  0  0  0
   -2.8385   -7.9295    4.8904 H   0  0  0  0  0  0  0  0  0  0  0  0
   -0.5276   -7.6652    0.1058 H   0  0  0  0  0  0  0  0  0  0  0  0
   -0.6514   -8.5290    1.6106 H   0  0  0  0  0  0  0  0  0  0  0  0
    0.6436   -7.3323    1.3908 H   0  0  0  0  0  0  0  0  0  0  0  0
   -0.7390   -5.4013   -0.1348 H   0  0  0  0  0  0  0  0  0  0  0  0
   -0.3778   -4.4965    1.3236 H   0  0  0  0  0  0  0  0  0  0  0  0
   -2.0418   -4.6315    0.7044 H   0  0  0  0  0  0  0  0  0  0  0  0
   -2.4722   -1.7205    1.8297 H   0  0  0  0  0  0  0  0  0  0  0  0
   -3.6161   -0.3541    5.6738 H   0  0  0  0  0  0  0  0  0  0  0  0
   -4.7307   -2.2472    6.6299 H   0  0  0  0  0  0  0  0  0  0  0  0
   -0.3827   -2.0922    6.4716 H   0  0  0  0  0  0  0  0  0  0  0  0
   -0.6606   -1.5779    4.8974 H   0  0  0  0  0  0  0  0  0  0  0  0
   -2.5747    0.4936    1.0217 H   0  0  0  0  0  0  0  0  0  0  0  0
   -3.6682    1.8808    4.8246 H   0  0  0  0  0  0  0  0  0  0  0  0
   -7.0398   -2.8738    6.8526 H   0  0  0  0  0  0  0  0  0  0  0  0
   -3.1365    2.3301    2.5079 H   0  0  0  0  0  0  0  0  0  0  0  0
   -6.8634   -4.7452    3.0935 H   0  0  0  0  0  0  0  0  0  0  0  0
   -8.1386   -4.1538    5.0968 H   0  0  0  0  0  0  0  0  0  0  0  0
   -0.3611   -5.5504    3.3373 H   0  0  0  0  0  0  0  0  0  0  0  0
  1 12  2  0  0  0  0
  2  7  1  0  0  0  0
  2  8  1  0  0  0  0
  2  9  1  0  0  0  0
  3 11  2  0  0  0  0
  3 24  1  0  0  0  0
  4 12  1  0  0  0  0
  5  6  1  0  0  0  0
  5 10  1  0  0  0  0
  5 11  1  0  0  0  0
  5 12  1  0  0  0  0
  6  7  1  0  0  0  0
  8 13  1  0  0  0  0
  8 14  1  0  0  0  0
  9 15  1  0  0  0  0
  9 16  1  0  0  0  0
 10 17  2  0  0  0  0
 10 18  1  0  0  0  0
 11 19  1  0  0  0  0
 17 20  1  0  0  0  0
 18 21  2  0  0  0  0
 19 22  2  0  0  0  0
 20 23  2  0  0  0  0
 21 23  1  0  0  0  0
 22 25  1  0  0  0  0
 24 25  2  0  0  0  0
  6 26  1  0  0  0  0
  6 27  1  0  0  0  0
  7 28  1  0  0  0  0
  7 29  1  0  0  0  0
  8 30  1  0  0  0  0
  9 31  1  0  0  0  0
 13 32  1  0  0  0  0
 13 33  1  0  0  0  0
 13 34  1  0  0  0  0
 14 35  1  0  0  0  0
 14 36  1  0  0  0  0
 14 37  1  0  0  0  0
 15 38  1  0  0  0  0
 15 39  1  0  0  0  0
 15 40  1  0  0  0  0
 16 41  1  0  0  0  0
 16 42  1  0  0  0  0
 16 43  1  0  0  0  0
 17 44  1  0  0  0  0
 18 45  1  0  0  0  0
 19 46  1  0  0  0  0
  4 47  1  0  0  0  0
  4 48  1  0  0  0  0
 20 49  1  0  0  0  0
 21 50  1  0  0  0  0
 22 51  1  0  0  0  0
 23 52  1  0  0  0  0
 24 53  1  0  0  0  0
 25 54  1  0  0  0  0
  2 55  1  0  0  0  0
M  CHG  1   2   1
M  END
$$$$
dofetilide_p
  Mrv2011 02102113523D          

 57 58  0  0  1  0            999 V2000
   -4.8995   -7.2417   -6.5615 S   0  0  1  0  0  0  0  0  0  0  0  0
    0.6008    0.2840   -0.7327 S   0  0  2  0  0  0  0  0  0  0  0  0
   -6.1144    0.6365   -0.3407 O   0  0  0  0  0  0  0  0  0  0  0  0
   -5.4880   -7.6203   -5.1184 O   0  0  0  0  0  0  0  0  0  0  0  0
   -5.8888   -7.7717   -7.7060 O   0  0  0  0  0  0  0  0  0  0  0  0
    1.0914    1.1145   -2.0128 O   0  0  0  0  0  0  0  0  0  0  0  0
    0.0278   -1.1362   -1.2082 O   0  0  0  0  0  0  0  0  0  0  0  0
   -8.3172   -0.8632   -1.6741 N   0  3  2  0  0  0  0  0  0  0  0  0
   -4.6874   -5.5458   -6.7044 N   0  0  0  0  0  0  0  0  0  0  0  0
   -0.5938    1.1728    0.1215 N   0  0  0  0  0  0  0  0  0  0  0  0
   -7.5984   -1.8073   -2.5974 C   0  0  1  0  0  0  0  0  0  0  0  0
   -7.7074   -1.4854   -4.1171 C   0  0  1  0  0  0  0  0  0  0  0  0
   -7.9404   -1.0251   -0.2227 C   0  0  1  0  0  0  0  0  0  0  0  0
   -6.9714   -2.5115   -4.9052 C   0  0  0  0  0  0  0  0  0  0  0  0
   -6.4751   -0.6772    0.1459 C   0  0  1  0  0  0  0  0  0  0  0  0
   -9.8053   -0.9352   -1.8408 C   0  0  0  0  0  0  0  0  0  0  0  0
   -7.5648   -3.7690   -5.1664 C   0  0  0  0  0  0  0  0  0  0  0  0
   -5.6476   -2.2837   -5.3446 C   0  0  0  0  0  0  0  0  0  0  0  0
   -5.4839   -4.5884   -6.1590 C   0  0  0  0  0  0  0  0  0  0  0  0
   -6.8318   -4.7959   -5.7877 C   0  0  0  0  0  0  0  0  0  0  0  0
   -4.9110   -3.3153   -5.9553 C   0  0  0  0  0  0  0  0  0  0  0  0
   -4.7641    0.8626   -0.2581 C   0  0  0  0  0  0  0  0  0  0  0  0
   -1.9406    1.0969   -0.0651 C   0  0  0  0  0  0  0  0  0  0  0  0
   -3.9511    0.6050   -1.3801 C   0  0  0  0  0  0  0  0  0  0  0  0
   -4.1707    1.3321    0.9315 C   0  0  0  0  0  0  0  0  0  0  0  0
   -2.5510    0.7155   -1.2820 C   0  0  0  0  0  0  0  0  0  0  0  0
   -2.7698    1.4390    1.0253 C   0  0  0  0  0  0  0  0  0  0  0  0
   -3.2576   -8.0228   -6.7463 C   0  0  0  0  0  0  0  0  0  0  0  0
    2.0187   -0.0035    0.3863 C   0  0  0  0  0  0  0  0  0  0  0  0
   -6.5314   -1.7909   -2.3733 H   0  0  0  0  0  0  0  0  0  0  0  0
   -7.9500   -2.8280   -2.4152 H   0  0  0  0  0  0  0  0  0  0  0  0
   -8.7474   -1.4743   -4.4470 H   0  0  0  0  0  0  0  0  0  0  0  0
   -7.3015   -0.4862   -4.2982 H   0  0  0  0  0  0  0  0  0  0  0  0
   -8.5610   -0.3656    0.3916 H   0  0  0  0  0  0  0  0  0  0  0  0
   -8.1440   -2.0521    0.0995 H   0  0  0  0  0  0  0  0  0  0  0  0
   -5.8162   -1.4541   -0.2535 H   0  0  0  0  0  0  0  0  0  0  0  0
   -6.3778   -0.7018    1.2363 H   0  0  0  0  0  0  0  0  0  0  0  0
  -10.3186   -0.2904   -1.1245 H   0  0  0  0  0  0  0  0  0  0  0  0
  -10.1029   -0.5851   -2.8282 H   0  0  0  0  0  0  0  0  0  0  0  0
  -10.1673   -1.9587   -1.7036 H   0  0  0  0  0  0  0  0  0  0  0  0
   -8.5337   -3.9497   -4.8922 H   0  0  0  0  0  0  0  0  0  0  0  0
   -5.2018   -1.3734   -5.2034 H   0  0  0  0  0  0  0  0  0  0  0  0
   -7.2910   -5.6932   -5.9607 H   0  0  0  0  0  0  0  0  0  0  0  0
   -3.9416   -3.1339   -6.2294 H   0  0  0  0  0  0  0  0  0  0  0  0
   -3.8977   -5.2453   -7.1810 H   0  0  0  0  0  0  0  0  0  0  0  0
   -4.3770    0.3216   -2.2663 H   0  0  0  0  0  0  0  0  0  0  0  0
   -4.7566    1.5777    1.7340 H   0  0  0  0  0  0  0  0  0  0  0  0
   -1.9834    0.5159   -2.1062 H   0  0  0  0  0  0  0  0  0  0  0  0
   -2.3596    1.7494    1.9086 H   0  0  0  0  0  0  0  0  0  0  0  0
   -0.2787    1.7507    0.8336 H   0  0  0  0  0  0  0  0  0  0  0  0
   -2.5803   -7.6098   -5.9983 H   0  0  0  0  0  0  0  0  0  0  0  0
   -3.3458   -9.0989   -6.6020 H   0  0  0  0  0  0  0  0  0  0  0  0
   -2.8622   -7.8177   -7.7411 H   0  0  0  0  0  0  0  0  0  0  0  0
    1.6768   -0.5383    1.2718 H   0  0  0  0  0  0  0  0  0  0  0  0
    2.7752   -0.5979   -0.1248 H   0  0  0  0  0  0  0  0  0  0  0  0
    2.4502    0.9504    0.6862 H   0  0  0  0  0  0  0  0  0  0  0  0
   -8.0386    0.0833   -1.9422 H   0  0  0  0  0  0  0  0  0  0  0  0
  1  4  2  0  0  0  0
  1  5  2  0  0  0  0
  1  9  1  0  0  0  0
  1 28  1  0  0  0  0
  2  6  2  0  0  0  0
  2  7  2  0  0  0  0
  2 10  1  0  0  0  0
  2 29  1  0  0  0  0
  3 15  1  0  0  0  0
  3 22  1  0  0  0  0
  8 11  1  0  0  0  0
  8 13  1  0  0  0  0
  8 16  1  0  0  0  0
  9 19  1  0  0  0  0
 10 23  1  0  0  0  0
 11 12  1  0  0  0  0
 12 14  1  0  0  0  0
 13 15  1  0  0  0  0
 14 17  2  0  0  0  0
 14 18  1  0  0  0  0
 17 20  1  0  0  0  0
 18 21  2  0  0  0  0
 19 20  2  0  0  0  0
 19 21  1  0  0  0  0
 22 24  2  0  0  0  0
 22 25  1  0  0  0  0
 23 26  2  0  0  0  0
 23 27  1  0  0  0  0
 24 26  1  0  0  0  0
 25 27  2  0  0  0  0
 11 30  1  0  0  0  0
 11 31  1  0  0  0  0
 12 32  1  0  0  0  0
 12 33  1  0  0  0  0
 13 34  1  0  0  0  0
 13 35  1  0  0  0  0
 15 36  1  0  0  0  0
 15 37  1  0  0  0  0
 16 38  1  0  0  0  0
 16 39  1  0  0  0  0
 16 40  1  0  0  0  0
 17 41  1  0  0  0  0
 18 42  1  0  0  0  0
 20 43  1  0  0  0  0
 21 44  1  0  0  0  0
  9 45  1  0  0  0  0
 24 46  1  0  0  0  0
 25 47  1  0  0  0  0
 26 48  1  0  0  0  0
 27 49  1  0  0  0  0
 10 50  1  0  0  0  0
 28 51  1  0  0  0  0
 28 52  1  0  0  0  0
 28 53  1  0  0  0  0
 29 54  1  0  0  0  0
 29 55  1  0  0  0  0
 29 56  1  0  0  0  0
  8 57  1  0  0  0  0
M  CHG  1   8   1
M  END
$$$$
donepezil_p
  Mrv2011 02102113533D          

 58 61  0  0  1  0            999 V2000
   -5.4260   -1.0998    4.4411 O   0  0  0  0  0  0  0  0  0  0  0  0
   -8.2299   -3.1958    9.8591 O   0  0  0  0  0  0  0  0  0  0  0  0
   -9.5714   -2.3590    7.5612 O   0  0  0  0  0  0  0  0  0  0  0  0
   -0.9559   -1.5933    1.2574 N   0  3  2  0  0  0  0  0  0  0  0  0
   -2.6556   -2.3656    3.6044 C   0  0  2  0  0  0  0  0  0  0  0  0
   -2.8989   -2.8274    5.0793 C   0  0  2  0  0  0  0  0  0  0  0  0
   -3.7351   -1.8753    5.9967 C   0  0  2  0  0  0  0  0  0  0  0  0
   -1.8071   -3.4115    2.8199 C   0  0  2  0  0  0  0  0  0  0  0  0
   -1.9708   -0.9712    3.4868 C   0  0  1  0  0  0  0  0  0  0  0  0
   -1.5521   -2.9674    1.3539 C   0  0  2  0  0  0  0  0  0  0  0  0
   -1.7681   -0.5760    2.0048 C   0  0  2  0  0  0  0  0  0  0  0  0
   -3.9326   -2.4493    7.4364 C   0  0  2  0  0  0  0  0  0  0  0  0
   -5.1212   -1.6242    5.5371 C   0  0  0  0  0  0  0  0  0  0  0  0
   -5.3873   -2.4531    7.6278 C   0  0  0  0  0  0  0  0  0  0  0  0
   -6.0563   -1.9808    6.5024 C   0  0  0  0  0  0  0  0  0  0  0  0
   -0.6748   -1.2003   -0.1674 C   0  0  1  0  0  0  0  0  0  0  0  0
   -6.1052   -2.8738    8.7631 C   0  0  0  0  0  0  0  0  0  0  0  0
   -7.4637   -1.9204    6.4673 C   0  0  0  0  0  0  0  0  0  0  0  0
    0.1159    0.0590   -0.2696 C   0  0  0  0  0  0  0  0  0  0  0  0
   -7.5191   -2.8218    8.7486 C   0  0  0  0  0  0  0  0  0  0  0  0
   -8.1997   -2.3430    7.5994 C   0  0  0  0  0  0  0  0  0  0  0  0
    1.5107    0.0482   -0.0326 C   0  0  0  0  0  0  0  0  0  0  0  0
   -0.5174    1.2973   -0.5421 C   0  0  0  0  0  0  0  0  0  0  0  0
    2.2484    1.2477   -0.0453 C   0  0  0  0  0  0  0  0  0  0  0  0
    0.2156    2.4989   -0.5244 C   0  0  0  0  0  0  0  0  0  0  0  0
    1.5987    2.4746   -0.2727 C   0  0  0  0  0  0  0  0  0  0  0  0
   -8.4694   -4.6113    9.9532 C   0  0  0  0  0  0  0  0  0  0  0  0
  -10.1907   -1.0882    7.8196 C   0  0  0  0  0  0  0  0  0  0  0  0
   -3.6293   -2.3105    3.1091 H   0  0  0  0  0  0  0  0  0  0  0  0
   -1.9273   -2.9854    5.5567 H   0  0  0  0  0  0  0  0  0  0  0  0
   -3.4016   -3.7974    5.0503 H   0  0  0  0  0  0  0  0  0  0  0  0
   -3.2212   -0.9137    6.0837 H   0  0  0  0  0  0  0  0  0  0  0  0
   -2.3244   -4.3773    2.8075 H   0  0  0  0  0  0  0  0  0  0  0  0
   -0.8416   -3.5506    3.3193 H   0  0  0  0  0  0  0  0  0  0  0  0
   -2.5825   -0.1965    3.9550 H   0  0  0  0  0  0  0  0  0  0  0  0
   -0.9977   -0.9882    3.9905 H   0  0  0  0  0  0  0  0  0  0  0  0
   -0.8641   -3.6909    0.9079 H   0  0  0  0  0  0  0  0  0  0  0  0
   -2.4954   -3.0130    0.7971 H   0  0  0  0  0  0  0  0  0  0  0  0
   -2.7430   -0.4347    1.5227 H   0  0  0  0  0  0  0  0  0  0  0  0
   -1.2532    0.3873    2.0104 H   0  0  0  0  0  0  0  0  0  0  0  0
   -3.4512   -1.8087    8.1801 H   0  0  0  0  0  0  0  0  0  0  0  0
   -3.5503   -3.4678    7.5425 H   0  0  0  0  0  0  0  0  0  0  0  0
   -0.1043   -1.9910   -0.6687 H   0  0  0  0  0  0  0  0  0  0  0  0
   -1.6189   -1.1054   -0.7136 H   0  0  0  0  0  0  0  0  0  0  0  0
   -5.6071   -3.2171    9.5876 H   0  0  0  0  0  0  0  0  0  0  0  0
   -7.9490   -1.5846    5.6320 H   0  0  0  0  0  0  0  0  0  0  0  0
    1.9954   -0.8331    0.1561 H   0  0  0  0  0  0  0  0  0  0  0  0
   -1.5230    1.3376   -0.7270 H   0  0  0  0  0  0  0  0  0  0  0  0
    3.2571    1.2278    0.1211 H   0  0  0  0  0  0  0  0  0  0  0  0
   -0.2584    3.3910   -0.6881 H   0  0  0  0  0  0  0  0  0  0  0  0
    2.1309    3.3469   -0.2509 H   0  0  0  0  0  0  0  0  0  0  0  0
   -9.0670   -4.7943   10.8463 H   0  0  0  0  0  0  0  0  0  0  0  0
   -9.0270   -4.9849    9.0921 H   0  0  0  0  0  0  0  0  0  0  0  0
   -7.5359   -5.1683   10.0525 H   0  0  0  0  0  0  0  0  0  0  0  0
  -11.2683   -1.2225    7.7431 H   0  0  0  0  0  0  0  0  0  0  0  0
   -9.9635   -0.7295    8.8248 H   0  0  0  0  0  0  0  0  0  0  0  0
   -9.8924   -0.3371    7.0859 H   0  0  0  0  0  0  0  0  0  0  0  0
   -0.0506   -1.6389    1.7297 H   0  0  0  0  0  0  0  0  0  0  0  0
  1 13  2  0  0  0  0
  2 20  1  0  0  0  0
  2 27  1  0  0  0  0
  3 21  1  0  0  0  0
  3 28  1  0  0  0  0
  4 10  1  0  0  0  0
  4 11  1  0  0  0  0
  4 16  1  0  0  0  0
  5  6  1  0  0  0  0
  5  8  1  0  0  0  0
  5  9  1  0  0  0  0
  7  6  1  0  0  0  0
  7 12  1  0  0  0  0
  7 13  1  0  0  0  0
  8 10  1  0  0  0  0
  9 11  1  0  0  0  0
 12 14  1  0  0  0  0
 13 15  1  0  0  0  0
 14 15  2  0  0  0  0
 14 17  1  0  0  0  0
 15 18  1  0  0  0  0
 16 19  1  0  0  0  0
 17 20  2  0  0  0  0
 18 21  2  0  0  0  0
 19 22  2  0  0  0  0
 19 23  1  0  0  0  0
 20 21  1  0  0  0  0
 22 24  1  0  0  0  0
 23 25  2  0  0  0  0
 24 26  2  0  0  0  0
 25 26  1  0  0  0  0
  5 29  1  0  0  0  0
  6 30  1  0  0  0  0
  6 31  1  0  0  0  0
  7 32  1  0  0  0  0
  8 33  1  0  0  0  0
  8 34  1  0  0  0  0
  9 35  1  0  0  0  0
  9 36  1  0  0  0  0
 10 37  1  0  0  0  0
 10 38  1  0  0  0  0
 11 39  1  0  0  0  0
 11 40  1  0  0  0  0
 12 41  1  0  0  0  0
 12 42  1  0  0  0  0
 16 43  1  0  0  0  0
 16 44  1  0  0  0  0
 17 45  1  0  0  0  0
 18 46  1  0  0  0  0
 22 47  1  0  0  0  0
 23 48  1  0  0  0  0
 24 49  1  0  0  0  0
 25 50  1  0  0  0  0
 26 51  1  0  0  0  0
 27 52  1  0  0  0  0
 27 53  1  0  0  0  0
 27 54  1  0  0  0  0
 28 55  1  0  0  0  0
 28 56  1  0  0  0  0
 28 57  1  0  0  0  0
  4 58  1  0  0  0  0
M  CHG  1   4   1
M  END
$$$$
droperidol_p
  Mrv2011 02102113583D          

 51 54  0  0  1  0            999 V2000
    9.7828    0.5765   14.9304 F   0  0  0  0  0  0  0  0  0  0  0  0
    0.2251    2.0871   10.9905 O   0  0  0  0  0  0  0  0  0  0  0  0
   10.2270    2.9744    9.1194 O   0  0  0  0  0  0  0  0  0  0  0  0
    4.6134    4.8351    9.3970 N   0  3  2  0  0  0  0  0  0  0  0  0
    0.3691    4.1084    9.7237 N   0  0  0  0  0  0  0  0  0  0  0  0
   -1.5711    3.0394   10.1543 N   0  0  0  0  0  0  0  0  0  0  0  0
    3.7290    6.0325    9.3387 C   0  0  1  0  0  0  0  0  0  0  0  0
    2.2467    5.6319    9.0908 C   0  0  1  0  0  0  0  0  0  0  0  0
    4.0904    3.8739   10.4138 C   0  0  1  0  0  0  0  0  0  0  0  0
    1.7313    4.4199    9.7524 C   0  0  0  0  0  0  0  0  0  0  0  0
    6.0623    5.2010    9.5837 C   0  0  2  0  0  0  0  0  0  0  0  0
    2.6542    3.6426   10.3750 C   0  0  0  0  0  0  0  0  0  0  0  0
    7.0623    4.0063    9.5970 C   0  0  1  0  0  0  0  0  0  0  0  0
   -0.6808    4.7730    9.1196 C   0  0  0  0  0  0  0  0  0  0  0  0
    8.5432    4.4524    9.7613 C   0  0  2  0  0  0  0  0  0  0  0  0
   -0.2484    3.0358   10.3253 C   0  0  0  0  0  0  0  0  0  0  0  0
   -1.8721    4.0997    9.4251 C   0  0  0  0  0  0  0  0  0  0  0  0
   -0.8016    5.9272    8.3008 C   0  0  0  0  0  0  0  0  0  0  0  0
    9.4653    3.3159   10.0561 C   0  0  0  0  0  0  0  0  0  0  0  0
   -3.1463    4.5157    9.0061 C   0  0  0  0  0  0  0  0  0  0  0  0
   -2.0685    6.3802    7.8712 C   0  0  0  0  0  0  0  0  0  0  0  0
   -3.2383    5.6791    8.2246 C   0  0  0  0  0  0  0  0  0  0  0  0
    9.5342    2.6171   11.3109 C   0  0  0  0  0  0  0  0  0  0  0  0
    8.8325    3.0608   12.4629 C   0  0  0  0  0  0  0  0  0  0  0  0
   10.3253    1.4444   11.4482 C   0  0  0  0  0  0  0  0  0  0  0  0
    8.9188    2.3730   13.6877 C   0  0  0  0  0  0  0  0  0  0  0  0
   10.4122    0.7506   12.6709 C   0  0  0  0  0  0  0  0  0  0  0  0
    9.7079    1.2157   13.7944 C   0  0  0  0  0  0  0  0  0  0  0  0
    4.5395    4.3720    8.4884 H   0  0  0  0  0  0  0  0  0  0  0  0
   -2.1983    2.3839   10.5004 H   0  0  0  0  0  0  0  0  0  0  0  0
    3.8022    6.5945   10.2776 H   0  0  0  0  0  0  0  0  0  0  0  0
    4.0492    6.6968    8.5316 H   0  0  0  0  0  0  0  0  0  0  0  0
    1.6674    6.4900    9.4321 H   0  0  0  0  0  0  0  0  0  0  0  0
    2.1172    5.5031    8.0125 H   0  0  0  0  0  0  0  0  0  0  0  0
    4.5630    2.9047   10.2375 H   0  0  0  0  0  0  0  0  0  0  0  0
    4.3533    4.2037   11.4232 H   0  0  0  0  0  0  0  0  0  0  0  0
    6.1754    5.7555   10.5199 H   0  0  0  0  0  0  0  0  0  0  0  0
    6.3613    5.8679    8.7693 H   0  0  0  0  0  0  0  0  0  0  0  0
    2.3834    2.8339   10.8644 H   0  0  0  0  0  0  0  0  0  0  0  0
    6.8052    3.3429   10.4227 H   0  0  0  0  0  0  0  0  0  0  0  0
    6.9569    3.4392    8.6671 H   0  0  0  0  0  0  0  0  0  0  0  0
    8.6309    5.2046   10.5481 H   0  0  0  0  0  0  0  0  0  0  0  0
    8.8462    4.9474    8.8350 H   0  0  0  0  0  0  0  0  0  0  0  0
    0.0007    6.4609    7.9913 H   0  0  0  0  0  0  0  0  0  0  0  0
   -3.9830    3.9869    9.2653 H   0  0  0  0  0  0  0  0  0  0  0  0
   -2.1449    7.2242    7.2973 H   0  0  0  0  0  0  0  0  0  0  0  0
   -4.1528    6.0121    7.9126 H   0  0  0  0  0  0  0  0  0  0  0  0
    8.2465    3.8964   12.4345 H   0  0  0  0  0  0  0  0  0  0  0  0
   10.8529    1.0747   10.6534 H   0  0  0  0  0  0  0  0  0  0  0  0
    8.4063    2.7190   14.5028 H   0  0  0  0  0  0  0  0  0  0  0  0
   10.9899   -0.0919   12.7391 H   0  0  0  0  0  0  0  0  0  0  0  0
  1 28  1  0  0  0  0
  2 16  2  0  0  0  0
  3 19  2  0  0  0  0
  4  7  1  0  0  0  0
  4  9  1  0  0  0  0
  4 11  1  0  0  0  0
  5 10  1  0  0  0  0
  5 14  1  0  0  0  0
  5 16  1  0  0  0  0
  6 16  1  0  0  0  0
  6 17  1  0  0  0  0
  7  8  1  0  0  0  0
  8 10  1  0  0  0  0
  9 12  1  0  0  0  0
 10 12  2  0  0  0  0
 11 13  1  0  0  0  0
 13 15  1  0  0  0  0
 14 17  2  0  0  0  0
 14 18  1  0  0  0  0
 15 19  1  0  0  0  0
 17 20  1  0  0  0  0
 18 21  2  0  0  0  0
 19 23  1  0  0  0  0
 20 22  2  0  0  0  0
 21 22  1  0  0  0  0
 23 24  2  0  0  0  0
 23 25  1  0  0  0  0
 24 26  1  0  0  0  0
 25 27  2  0  0  0  0
 26 28  2  0  0  0  0
 27 28  1  0  0  0  0
  4 29  1  0  0  0  0
  6 30  1  0  0  0  0
  7 31  1  0  0  0  0
  7 32  1  0  0  0  0
  8 33  1  0  0  0  0
  8 34  1  0  0  0  0
  9 35  1  0  0  0  0
  9 36  1  0  0  0  0
 11 37  1  0  0  0  0
 11 38  1  0  0  0  0
 12 39  1  0  0  0  0
 13 40  1  0  0  0  0
 13 41  1  0  0  0  0
 15 42  1  0  0  0  0
 15 43  1  0  0  0  0
 18 44  1  0  0  0  0
 20 45  1  0  0  0  0
 21 46  1  0  0  0  0
 22 47  1  0  0  0  0
 24 48  1  0  0  0  0
 25 49  1  0  0  0  0
 26 50  1  0  0  0  0
 27 51  1  0  0  0  0
M  CHG  1   4   1
M  END
$$$$
duloxetine
  Mrv2011 02102113593D          

 41 43  0  0  1  0            999 V2000
    2.5090   -3.8157    1.0382 S   0  0  0  0  0  0  0  0  0  0  0  0
    1.0197   -0.8858   -1.1328 O   0  0  0  0  0  0  0  0  0  0  0  0
   -0.0925   -3.3336   -4.5899 N   0  3  2  0  0  0  0  0  0  0  0  0
    1.1901   -2.3263   -1.0554 C   0  0  1  0  0  0  0  0  0  0  0  0
    1.1923   -2.9245   -2.4941 C   0  0  1  0  0  0  0  0  0  0  0  0
   -0.1390   -2.6965   -3.2544 C   0  0  2  0  0  0  0  0  0  0  0  0
    2.4239   -2.7064   -0.3207 C   0  0  0  0  0  0  0  0  0  0  0  0
    0.7842   -0.2542    0.0693 C   0  0  0  0  0  0  0  0  0  0  0  0
   -0.5083   -0.1655    0.6510 C   0  0  0  0  0  0  0  0  0  0  0  0
   -0.6645    0.4458    1.9324 C   0  0  0  0  0  0  0  0  0  0  0  0
    3.7329   -2.2534   -0.5399 C   0  0  0  0  0  0  0  0  0  0  0  0
    1.8826    0.3349    0.7278 C   0  0  0  0  0  0  0  0  0  0  0  0
   -1.6533   -0.6725   -0.0066 C   0  0  0  0  0  0  0  0  0  0  0  0
    0.4591    1.0103    2.5790 C   0  0  0  0  0  0  0  0  0  0  0  0
    1.7258    0.9616    1.9741 C   0  0  0  0  0  0  0  0  0  0  0  0
   -1.9386    0.4712    2.5461 C   0  0  0  0  0  0  0  0  0  0  0  0
    4.7090   -2.7565    0.3411 C   0  0  0  0  0  0  0  0  0  0  0  0
    4.2372   -3.6642    1.2926 C   0  0  0  0  0  0  0  0  0  0  0  0
   -1.2981   -3.1453   -5.4205 C   0  0  0  0  0  0  0  0  0  0  0  0
   -2.9221   -0.5904    0.5899 C   0  0  0  0  0  0  0  0  0  0  0  0
   -3.0629   -0.0344    1.8709 C   0  0  0  0  0  0  0  0  0  0  0  0
    0.3378   -2.7691   -0.5287 H   0  0  0  0  0  0  0  0  0  0  0  0
    2.0064   -2.4803   -3.0740 H   0  0  0  0  0  0  0  0  0  0  0  0
    1.3697   -4.0024   -2.4334 H   0  0  0  0  0  0  0  0  0  0  0  0
   -0.9629   -3.1254   -2.6766 H   0  0  0  0  0  0  0  0  0  0  0  0
   -0.3103   -1.6226   -3.3678 H   0  0  0  0  0  0  0  0  0  0  0  0
    3.9620   -1.5875   -1.2806 H   0  0  0  0  0  0  0  0  0  0  0  0
    0.0538   -4.3376   -4.4638 H   0  0  0  0  0  0  0  0  0  0  0  0
    2.8082    0.3053    0.2990 H   0  0  0  0  0  0  0  0  0  0  0  0
   -1.5822   -1.1067   -0.9273 H   0  0  0  0  0  0  0  0  0  0  0  0
    0.3686    1.4620    3.4943 H   0  0  0  0  0  0  0  0  0  0  0  0
    2.5358    1.3740    2.4453 H   0  0  0  0  0  0  0  0  0  0  0  0
   -2.0597    0.8544    3.4881 H   0  0  0  0  0  0  0  0  0  0  0  0
    5.6917   -2.4767    0.2908 H   0  0  0  0  0  0  0  0  0  0  0  0
    4.7917   -4.1490    2.0021 H   0  0  0  0  0  0  0  0  0  0  0  0
   -1.1469   -3.6465   -6.3763 H   0  0  0  0  0  0  0  0  0  0  0  0
   -1.4768   -2.0856   -5.6095 H   0  0  0  0  0  0  0  0  0  0  0  0
   -2.1726   -3.5799   -4.9341 H   0  0  0  0  0  0  0  0  0  0  0  0
   -3.7425   -0.9386    0.0910 H   0  0  0  0  0  0  0  0  0  0  0  0
   -3.9847    0.0058    2.3121 H   0  0  0  0  0  0  0  0  0  0  0  0
    0.7081   -2.9575   -5.1020 H   0  0  0  0  0  0  0  0  0  0  0  0
  1  7  1  0  0  0  0
  1 18  1  0  0  0  0
  4  2  1  0  0  0  0
  2  8  1  0  0  0  0
  3  6  1  0  0  0  0
  3 19  1  0  0  0  0
  4  5  1  0  0  0  0
  4  7  1  0  0  0  0
  5  6  1  0  0  0  0
  7 11  2  0  0  0  0
  8  9  1  0  0  0  0
  8 12  2  0  0  0  0
  9 10  1  0  0  0  0
  9 13  2  0  0  0  0
 10 14  1  0  0  0  0
 10 16  2  0  0  0  0
 11 17  1  0  0  0  0
 12 15  1  0  0  0  0
 13 20  1  0  0  0  0
 14 15  2  0  0  0  0
 16 21  1  0  0  0  0
 17 18  2  0  0  0  0
 20 21  2  0  0  0  0
  4 22  1  0  0  0  0
  5 23  1  0  0  0  0
  5 24  1  0  0  0  0
  6 25  1  0  0  0  0
  6 26  1  0  0  0  0
 11 27  1  0  0  0  0
  3 28  1  0  0  0  0
 12 29  1  0  0  0  0
 13 30  1  0  0  0  0
 14 31  1  0  0  0  0
 15 32  1  0  0  0  0
 16 33  1  0  0  0  0
 17 34  1  0  0  0  0
 18 35  1  0  0  0  0
 19 36  1  0  0  0  0
 19 37  1  0  0  0  0
 19 38  1  0  0  0  0
 20 39  1  0  0  0  0
 21 40  1  0  0  0  0
  3 41  1  0  0  0  0
M  CHG  1   3   1
M  END
$$$$
flecainide_p
  Mrv2011 02102114003D          

 49 50  0  0  1  0            999 V2000
    6.0257   -3.7133   -3.5459 F   0  0  0  0  0  0  0  0  0  0  0  0
    5.0079   -2.0049   -4.5523 F   0  0  0  0  0  0  0  0  0  0  0  0
    7.1361   -1.8135   -3.9165 F   0  0  0  0  0  0  0  0  0  0  0  0
    1.2328   -0.4504    5.5916 F   0  0  0  0  0  0  0  0  0  0  0  0
    0.3094    1.1941    4.3993 F   0  0  0  0  0  0  0  0  0  0  0  0
   -0.8820   -0.6139    4.9161 F   0  0  0  0  0  0  0  0  0  0  0  0
    2.5334   -0.5178   -3.0551 O   0  0  0  0  0  0  0  0  0  0  0  0
    4.1597   -2.3244   -1.8896 O   0  0  0  0  0  0  0  0  0  0  0  0
    2.1206   -0.3353    2.8746 O   0  0  0  0  0  0  0  0  0  0  0  0
    0.0204    3.1961   -3.5620 N   0  3  1  0  0  0  0  0  0  0  0  0
    2.3541    1.4550   -1.9583 N   0  0  0  0  0  0  0  0  0  0  0  0
    1.3492    3.5181   -2.9669 C   0  0  2  0  0  0  0  0  0  0  0  0
    1.9489    4.7943   -3.6365 C   0  0  1  0  0  0  0  0  0  0  0  0
    0.9518    5.9784   -3.6258 C   0  0  1  0  0  0  0  0  0  0  0  0
   -0.3951    5.5723   -4.2715 C   0  0  1  0  0  0  0  0  0  0  0  0
   -0.9628    4.3059   -3.5828 C   0  0  2  0  0  0  0  0  0  0  0  0
    2.3123    2.2989   -3.1168 C   0  0  1  0  0  0  0  0  0  0  0  0
    2.5495    0.1003   -1.9634 C   0  0  0  0  0  0  0  0  0  0  0  0
    2.8222   -0.6171   -0.7581 C   0  0  0  0  0  0  0  0  0  0  0  0
    3.6128   -1.8032   -0.7467 C   0  0  0  0  0  0  0  0  0  0  0  0
    2.3223   -0.1521    0.4834 C   0  0  0  0  0  0  0  0  0  0  0  0
    2.5743   -0.8409    1.6882 C   0  0  0  0  0  0  0  0  0  0  0  0
    3.8555   -2.4990    0.4569 C   0  0  0  0  0  0  0  0  0  0  0  0
    3.3304   -2.0268    1.6695 C   0  0  0  0  0  0  0  0  0  0  0  0
    5.4642   -1.7948   -2.2067 C   0  0  1  0  0  0  0  0  0  0  0  0
    0.8317   -0.8535    3.2568 C   0  0  1  0  0  0  0  0  0  0  0  0
    5.9147   -2.3437   -3.5772 C   0  0  2  0  0  0  0  0  0  0  0  0
    0.3684   -0.1691    4.5615 C   0  0  2  0  0  0  0  0  0  0  0  0
    1.2046    3.7329   -1.9013 H   0  0  0  0  0  0  0  0  0  0  0  0
    2.8536    5.0967   -3.1012 H   0  0  0  0  0  0  0  0  0  0  0  0
    2.2240    4.5743   -4.6728 H   0  0  0  0  0  0  0  0  0  0  0  0
    0.7780    6.2944   -2.5933 H   0  0  0  0  0  0  0  0  0  0  0  0
    1.3818    6.8234   -4.1704 H   0  0  0  0  0  0  0  0  0  0  0  0
   -1.1090    6.3966   -4.1759 H   0  0  0  0  0  0  0  0  0  0  0  0
   -0.2444    5.3733   -5.3373 H   0  0  0  0  0  0  0  0  0  0  0  0
   -1.2621    4.5447   -2.5591 H   0  0  0  0  0  0  0  0  0  0  0  0
   -1.8508    3.9727   -4.1252 H   0  0  0  0  0  0  0  0  0  0  0  0
    0.1637    2.8898   -4.5263 H   0  0  0  0  0  0  0  0  0  0  0  0
    3.3378    2.6519   -3.2485 H   0  0  0  0  0  0  0  0  0  0  0  0
    2.0570    1.7441   -4.0239 H   0  0  0  0  0  0  0  0  0  0  0  0
    2.3208    1.9001   -1.0969 H   0  0  0  0  0  0  0  0  0  0  0  0
    1.7659    0.7038    0.5293 H   0  0  0  0  0  0  0  0  0  0  0  0
    4.4248   -3.3504    0.4521 H   0  0  0  0  0  0  0  0  0  0  0  0
    3.5060   -2.5458    2.5339 H   0  0  0  0  0  0  0  0  0  0  0  0
    5.4403   -0.7010   -2.2623 H   0  0  0  0  0  0  0  0  0  0  0  0
    6.1948   -2.0897   -1.4463 H   0  0  0  0  0  0  0  0  0  0  0  0
    0.0888   -0.6568    2.4753 H   0  0  0  0  0  0  0  0  0  0  0  0
    0.8930   -1.9348    3.4233 H   0  0  0  0  0  0  0  0  0  0  0  0
   -0.3888    2.4173   -3.0432 H   0  0  0  0  0  0  0  0  0  0  0  0
  1 27  1  0  0  0  0
  2 27  1  0  0  0  0
  3 27  1  0  0  0  0
  4 28  1  0  0  0  0
  5 28  1  0  0  0  0
  6 28  1  0  0  0  0
  7 18  2  0  0  0  0
  8 20  1  0  0  0  0
  8 25  1  0  0  0  0
  9 22  1  0  0  0  0
  9 26  1  0  0  0  0
 12 10  1  0  0  0  0
 10 16  1  0  0  0  0
 11 17  1  0  0  0  0
 11 18  1  0  0  0  0
 12 13  1  0  0  0  0
 12 17  1  0  0  0  0
 13 14  1  0  0  0  0
 14 15  1  0  0  0  0
 15 16  1  0  0  0  0
 18 19  1  0  0  0  0
 19 20  2  0  0  0  0
 19 21  1  0  0  0  0
 20 23  1  0  0  0  0
 21 22  2  0  0  0  0
 22 24  1  0  0  0  0
 23 24  2  0  0  0  0
 25 27  1  0  0  0  0
 26 28  1  0  0  0  0
 12 29  1  0  0  0  0
 13 30  1  0  0  0  0
 13 31  1  0  0  0  0
 14 32  1  0  0  0  0
 14 33  1  0  0  0  0
 15 34  1  0  0  0  0
 15 35  1  0  0  0  0
 16 36  1  0  0  0  0
 16 37  1  0  0  0  0
 10 38  1  0  0  0  0
 17 39  1  0  0  0  0
 17 40  1  0  0  0  0
 11 41  1  0  0  0  0
 21 42  1  0  0  0  0
 23 43  1  0  0  0  0
 24 44  1  0  0  0  0
 25 45  1  0  0  0  0
 25 46  1  0  0  0  0
 26 47  1  0  0  0  0
 26 48  1  0  0  0  0
 10 49  1  0  0  0  0
M  CHG  1  10   1
M  END
$$$$
halofantrine_p
  Mrv2011 02102114013D          

 64 66  0  0  1  0            999 V2000
    1.8447    2.6246    2.8698 Cl  0  0  0  0  0  0  0  0  0  0  0  0
   -0.8355   -1.9183    3.2128 Cl  0  0  0  0  0  0  0  0  0  0  0  0
    5.0334   -5.5187   -2.1757 F   0  0  0  0  0  0  0  0  0  0  0  0
    4.9485   -5.9220    0.0030 F   0  0  0  0  0  0  0  0  0  0  0  0
    3.0853   -5.5716   -1.1725 F   0  0  0  0  0  0  0  0  0  0  0  0
    5.6931    2.0499   -1.2306 O   0  0  0  0  0  0  0  0  0  0  0  0
    7.1957    2.6819    3.5424 N   0  3  1  0  0  0  0  0  0  0  0  0
    6.8919    1.7333    2.4049 C   0  0  2  0  0  0  0  0  0  0  0  0
    6.5343    2.3655    1.0276 C   0  0  1  0  0  0  0  0  0  0  0  0
    6.0280    1.3372   -0.0409 C   0  0  1  0  0  0  0  0  0  0  0  0
    7.3149    1.9545    4.8623 C   0  0  2  0  0  0  0  0  0  0  0  0
    8.3926    3.5624    3.2507 C   0  0  2  0  0  0  0  0  0  0  0  0
    4.8519    0.4563    0.3201 C   0  0  0  0  0  0  0  0  0  0  0  0
    6.0854    1.1255    5.3528 C   0  0  2  0  0  0  0  0  0  0  0  0
    8.7374    4.6944    4.2683 C   0  0  1  0  0  0  0  0  0  0  0  0
    4.7309   -0.9331    0.0003 C   0  0  0  0  0  0  0  0  0  0  0  0
    3.6094   -1.6953    0.4787 C   0  0  0  0  0  0  0  0  0  0  0  0
    3.7920    1.0621    1.0248 C   0  0  0  0  0  0  0  0  0  0  0  0
    2.6007   -1.0576    1.2766 C   0  0  0  0  0  0  0  0  0  0  0  0
    2.7134    0.3382    1.5669 C   0  0  0  0  0  0  0  0  0  0  0  0
    6.2893    0.5152    6.7702 C   0  0  2  0  0  0  0  0  0  0  0  0
    9.9073    5.6011    3.7832 C   0  0  2  0  0  0  0  0  0  0  0  0
    5.6919   -1.5926   -0.8115 C   0  0  0  0  0  0  0  0  0  0  0  0
    3.5470   -3.0796    0.1369 C   0  0  0  0  0  0  0  0  0  0  0  0
    4.5086   -3.7239   -0.6725 C   0  0  0  0  0  0  0  0  0  0  0  0
    1.4606   -1.7327    1.8041 C   0  0  0  0  0  0  0  0  0  0  0  0
    5.5955   -2.9548   -1.1241 C   0  0  0  0  0  0  0  0  0  0  0  0
    1.7591    0.9904    2.4007 C   0  0  0  0  0  0  0  0  0  0  0  0
    4.9749   -0.3237    7.1961 C   0  0  0  0  0  0  0  0  0  0  0  0
   10.2903    6.7161    4.7843 C   0  0  0  0  0  0  0  0  0  0  0  0
    0.5068   -1.0821    2.6055 C   0  0  0  0  0  0  0  0  0  0  0  0
    0.6657    0.2740    2.9103 C   0  0  0  0  0  0  0  0  0  0  0  0
    4.3931   -5.1765   -1.0074 C   0  0  2  0  0  0  0  0  0  0  0  0
    6.0179    1.1479    2.6738 H   0  0  0  0  0  0  0  0  0  0  0  0
    7.7221    1.0341    2.2665 H   0  0  0  0  0  0  0  0  0  0  0  0
    5.7950    3.1552    1.1796 H   0  0  0  0  0  0  0  0  0  0  0  0
    7.4260    2.8401    0.6106 H   0  0  0  0  0  0  0  0  0  0  0  0
    6.9107    0.7404   -0.2621 H   0  0  0  0  0  0  0  0  0  0  0  0
    7.4889    2.6904    5.6476 H   0  0  0  0  0  0  0  0  0  0  0  0
    8.1845    1.2925    4.8290 H   0  0  0  0  0  0  0  0  0  0  0  0
    8.2174    4.0829    2.3085 H   0  0  0  0  0  0  0  0  0  0  0  0
    9.2783    2.9341    3.1197 H   0  0  0  0  0  0  0  0  0  0  0  0
    5.8971    0.2907    4.6742 H   0  0  0  0  0  0  0  0  0  0  0  0
    5.2045    1.7742    5.3534 H   0  0  0  0  0  0  0  0  0  0  0  0
    7.8480    5.3095    4.4305 H   0  0  0  0  0  0  0  0  0  0  0  0
    9.0350    4.2590    5.2245 H   0  0  0  0  0  0  0  0  0  0  0  0
    3.8226    2.0716    1.1638 H   0  0  0  0  0  0  0  0  0  0  0  0
    6.5479    1.3687    7.4548 H   0  0  0  0  0  0  0  0  0  0  0  0
    7.2366   -0.0902    6.7161 H   0  0  0  0  0  0  0  0  0  0  0  0
    9.6366    6.0721    2.8338 H   0  0  0  0  0  0  0  0  0  0  0  0
   10.7925    4.9815    3.6121 H   0  0  0  0  0  0  0  0  0  0  0  0
    6.4855   -1.1042   -1.2182 H   0  0  0  0  0  0  0  0  0  0  0  0
    2.7886   -3.6635    0.4780 H   0  0  0  0  0  0  0  0  0  0  0  0
    5.5562    1.3613   -1.9137 H   0  0  0  0  0  0  0  0  0  0  0  0
    1.2866   -2.7176    1.6203 H   0  0  0  0  0  0  0  0  0  0  0  0
    6.3329   -3.3835   -1.6890 H   0  0  0  0  0  0  0  0  0  0  0  0
    4.7675   -1.1121    6.4708 H   0  0  0  0  0  0  0  0  0  0  0  0
    4.1090    0.3356    7.2696 H   0  0  0  0  0  0  0  0  0  0  0  0
    5.1499   -0.7838    8.1695 H   0  0  0  0  0  0  0  0  0  0  0  0
   11.1453    7.2770    4.4002 H   0  0  0  0  0  0  0  0  0  0  0  0
    9.4578    7.4078    4.9252 H   0  0  0  0  0  0  0  0  0  0  0  0
   10.5659    6.2885    5.7498 H   0  0  0  0  0  0  0  0  0  0  0  0
   -0.0225    0.7408    3.5069 H   0  0  0  0  0  0  0  0  0  0  0  0
    6.4045    3.3038    3.6278 H   0  0  0  0  0  0  0  0  0  0  0  0
  1 28  1  0  0  0  0
  2 31  1  0  0  0  0
  3 33  1  0  0  0  0
  4 33  1  0  0  0  0
  5 33  1  0  0  0  0
 10  6  1  0  0  0  0
  7  8  1  0  0  0  0
  7 11  1  0  0  0  0
  7 12  1  0  0  0  0
  8  9  1  0  0  0  0
 10  9  1  0  0  0  0
 10 13  1  0  0  0  0
 11 14  1  0  0  0  0
 12 15  1  0  0  0  0
 13 16  1  0  0  0  0
 13 18  2  0  0  0  0
 14 21  1  0  0  0  0
 15 22  1  0  0  0  0
 16 17  2  0  0  0  0
 16 23  1  0  0  0  0
 17 19  1  0  0  0  0
 17 24  1  0  0  0  0
 18 20  1  0  0  0  0
 19 20  2  0  0  0  0
 19 26  1  0  0  0  0
 20 28  1  0  0  0  0
 21 29  1  0  0  0  0
 22 30  1  0  0  0  0
 23 27  2  0  0  0  0
 24 25  2  0  0  0  0
 25 27  1  0  0  0  0
 25 33  1  0  0  0  0
 26 31  2  0  0  0  0
 28 32  2  0  0  0  0
 31 32  1  0  0  0  0
  8 34  1  0  0  0  0
  8 35  1  0  0  0  0
  9 36  1  0  0  0  0
  9 37  1  0  0  0  0
 10 38  1  0  0  0  0
 11 39  1  0  0  0  0
 11 40  1  0  0  0  0
 12 41  1  0  0  0  0
 12 42  1  0  0  0  0
 14 43  1  0  0  0  0
 14 44  1  0  0  0  0
 15 45  1  0  0  0  0
 15 46  1  0  0  0  0
 18 47  1  0  0  0  0
 21 48  1  0  0  0  0
 21 49  1  0  0  0  0
 22 50  1  0  0  0  0
 22 51  1  0  0  0  0
 23 52  1  0  0  0  0
 24 53  1  0  0  0  0
  6 54  1  0  0  0  0
 26 55  1  0  0  0  0
 27 56  1  0  0  0  0
 29 57  1  0  0  0  0
 29 58  1  0  0  0  0
 29 59  1  0  0  0  0
 30 60  1  0  0  0  0
 30 61  1  0  0  0  0
 30 62  1  0  0  0  0
 32 63  1  0  0  0  0
  7 64  1  0  0  0  0
M  CHG  1   7   1
M  END
$$$$
Haloperidol_p
  Mrv2011 02102114023D          

 50 52  0  0  0  0            999 V2000
    2.4399   -7.4990    5.8876 Cl  0  0  0  0  0  0  0  0  0  0  0  0
   -4.6564    0.9243    6.7635 F   0  0  0  0  0  0  0  0  0  0  0  0
    5.0426   -2.8786    1.8531 O   0  0  0  0  0  0  0  0  0  0  0  0
   -4.1622    0.5276    0.4910 O   0  0  0  0  0  0  0  0  0  0  0  0
    0.8792   -2.3762    0.8139 N   0  3  2  0  0  0  0  0  0  0  0  0
    3.6296   -3.1020    1.8656 C   0  0  2  0  0  0  0  0  0  0  0  0
    3.1594   -3.4365    0.4036 C   0  0  2  0  0  0  0  0  0  0  0  0
    2.9275   -1.7370    2.1898 C   0  0  1  0  0  0  0  0  0  0  0  0
    1.6150   -3.5920    0.3290 C   0  0  2  0  0  0  0  0  0  0  0  0
    1.3825   -1.8703    2.1359 C   0  0  2  0  0  0  0  0  0  0  0  0
   -0.6122   -2.5712    0.7667 C   0  0  2  0  0  0  0  0  0  0  0  0
    3.4068   -4.2057    2.8899 C   0  0  0  0  0  0  0  0  0  0  0  0
   -1.4362   -1.2840    1.0458 C   0  0  1  0  0  0  0  0  0  0  0  0
    3.1719   -3.9265    4.2665 C   0  0  0  0  0  0  0  0  0  0  0  0
    3.4469   -5.5830    2.5319 C   0  0  0  0  0  0  0  0  0  0  0  0
   -2.9692   -1.4404    0.8535 C   0  0  2  0  0  0  0  0  0  0  0  0
    2.8737   -4.9392    5.1944 C   0  0  0  0  0  0  0  0  0  0  0  0
    3.1490   -6.6028    3.4529 C   0  0  0  0  0  0  0  0  0  0  0  0
   -3.7141   -0.2517    1.3675 C   0  0  0  0  0  0  0  0  0  0  0  0
    2.8412   -6.2810    4.7843 C   0  0  0  0  0  0  0  0  0  0  0  0
   -3.9290    0.0488    2.7585 C   0  0  0  0  0  0  0  0  0  0  0  0
   -4.5379    1.2707    3.1532 C   0  0  0  0  0  0  0  0  0  0  0  0
   -3.5633   -0.8517    3.7944 C   0  0  0  0  0  0  0  0  0  0  0  0
   -4.7881    1.5680    4.5072 C   0  0  0  0  0  0  0  0  0  0  0  0
   -3.8067   -0.5568    5.1492 C   0  0  0  0  0  0  0  0  0  0  0  0
   -4.4251    0.6521    5.5078 C   0  0  0  0  0  0  0  0  0  0  0  0
    3.6468   -4.3303    0.0146 H   0  0  0  0  0  0  0  0  0  0  0  0
    3.4550   -2.6306   -0.2754 H   0  0  0  0  0  0  0  0  0  0  0  0
    3.2337   -1.3401    3.1581 H   0  0  0  0  0  0  0  0  0  0  0  0
    3.2329   -0.9788    1.4608 H   0  0  0  0  0  0  0  0  0  0  0  0
    1.3507   -3.7762   -0.7153 H   0  0  0  0  0  0  0  0  0  0  0  0
    1.3178   -4.4717    0.9051 H   0  0  0  0  0  0  0  0  0  0  0  0
    1.0400   -2.5162    2.9485 H   0  0  0  0  0  0  0  0  0  0  0  0
    0.9856   -0.8716    2.3191 H   0  0  0  0  0  0  0  0  0  0  0  0
   -0.9084   -3.3389    1.4876 H   0  0  0  0  0  0  0  0  0  0  0  0
   -0.8919   -2.9265   -0.2289 H   0  0  0  0  0  0  0  0  0  0  0  0
   -1.2563   -0.9770    2.0751 H   0  0  0  0  0  0  0  0  0  0  0  0
   -1.0745   -0.4902    0.3859 H   0  0  0  0  0  0  0  0  0  0  0  0
    5.1967   -2.1613    1.2023 H   0  0  0  0  0  0  0  0  0  0  0  0
    3.2046   -2.9767    4.6330 H   0  0  0  0  0  0  0  0  0  0  0  0
    3.6884   -5.8822    1.5882 H   0  0  0  0  0  0  0  0  0  0  0  0
   -3.3333   -2.3445    1.3469 H   0  0  0  0  0  0  0  0  0  0  0  0
   -3.1598   -1.5749   -0.2161 H   0  0  0  0  0  0  0  0  0  0  0  0
    2.6786   -4.6904    6.1668 H   0  0  0  0  0  0  0  0  0  0  0  0
    3.1555   -7.5779    3.1457 H   0  0  0  0  0  0  0  0  0  0  0  0
   -4.8101    1.9651    2.4541 H   0  0  0  0  0  0  0  0  0  0  0  0
   -3.1155   -1.7445    3.5848 H   0  0  0  0  0  0  0  0  0  0  0  0
   -5.2344    2.4516    4.7634 H   0  0  0  0  0  0  0  0  0  0  0  0
   -3.5326   -1.2251    5.8734 H   0  0  0  0  0  0  0  0  0  0  0  0
    1.0860   -1.6407    0.1359 H   0  0  0  0  0  0  0  0  0  0  0  0
  1 20  1  0  0  0  0
  2 26  1  0  0  0  0
  3  6  1  0  0  0  0
  4 19  2  0  0  0  0
  5  9  1  0  0  0  0
  5 10  1  0  0  0  0
  5 11  1  0  0  0  0
  6  7  1  0  0  0  0
  6  8  1  0  0  0  0
  6 12  1  0  0  0  0
  7  9  1  0  0  0  0
  8 10  1  0  0  0  0
 11 13  1  0  0  0  0
 12 14  2  0  0  0  0
 12 15  1  0  0  0  0
 13 16  1  0  0  0  0
 14 17  1  0  0  0  0
 15 18  2  0  0  0  0
 16 19  1  0  0  0  0
 17 20  2  0  0  0  0
 18 20  1  0  0  0  0
 19 21  1  0  0  0  0
 21 22  2  0  0  0  0
 21 23  1  0  0  0  0
 22 24  1  0  0  0  0
 23 25  2  0  0  0  0
 24 26  2  0  0  0  0
 25 26  1  0  0  0  0
  7 27  1  0  0  0  0
  7 28  1  0  0  0  0
  8 29  1  0  0  0  0
  8 30  1  0  0  0  0
  9 31  1  0  0  0  0
  9 32  1  0  0  0  0
 10 33  1  0  0  0  0
 10 34  1  0  0  0  0
 11 35  1  0  0  0  0
 11 36  1  0  0  0  0
 13 37  1  0  0  0  0
 13 38  1  0  0  0  0
  3 39  1  0  0  0  0
 14 40  1  0  0  0  0
 15 41  1  0  0  0  0
 16 42  1  0  0  0  0
 16 43  1  0  0  0  0
 17 44  1  0  0  0  0
 18 45  1  0  0  0  0
 22 46  1  0  0  0  0
 23 47  1  0  0  0  0
 24 48  1  0  0  0  0
 25 49  1  0  0  0  0
  5 50  1  0  0  0  0
M  CHG  1   5   1
M  END
$$$$
Ibutilide_p
  Mrv2011 02102114043D          

 63 63  0  0  1  0            999 V2000
    0.8113    0.2432   -0.6703 S   0  0  1  0  0  0  0  0  0  0  0  0
   -6.2873   -0.7001   -1.1919 O   0  0  0  0  0  0  0  0  0  0  0  0
    0.2226   -1.1672   -1.1573 O   0  0  0  0  0  0  0  0  0  0  0  0
    1.3366    1.0857   -1.9307 O   0  0  0  0  0  0  0  0  0  0  0  0
  -10.4460    2.6998   -2.1838 N   0  3  2  0  0  0  0  0  0  0  0  0
   -0.3946    1.1321    0.1675 N   0  0  0  0  0  0  0  0  0  0  0  0
  -11.2333    2.3933   -0.9319 C   0  0  1  0  0  0  0  0  0  0  0  0
   -8.9608    2.8168   -1.9212 C   0  0  1  0  0  0  0  0  0  0  0  0
  -12.7546    2.0941   -1.0875 C   0  0  1  0  0  0  0  0  0  0  0  0
   -8.2545    1.5678   -1.3244 C   0  0  1  0  0  0  0  0  0  0  0  0
  -13.3895    1.5694    0.2332 C   0  0  2  0  0  0  0  0  0  0  0  0
   -6.7054    1.7087   -1.2573 C   0  0  1  0  0  0  0  0  0  0  0  0
  -14.9034    1.2502    0.1267 C   0  0  2  0  0  0  0  0  0  0  0  0
  -10.9963    3.8982   -2.9184 C   0  0  1  0  0  0  0  0  0  0  0  0
   -6.0230    0.5270   -0.5107 C   0  0  2  0  0  0  0  0  0  0  0  0
  -15.5265    0.8717    1.4979 C   0  0  1  0  0  0  0  0  0  0  0  0
   -4.5527    0.7231   -0.3593 C   0  0  0  0  0  0  0  0  0  0  0  0
  -17.0470    0.5864    1.3921 C   0  0  1  0  0  0  0  0  0  0  0  0
  -10.3213    4.2228   -4.2769 C   0  0  0  0  0  0  0  0  0  0  0  0
   -3.9881    1.0605    0.8942 C   0  0  0  0  0  0  0  0  0  0  0  0
   -3.6813    0.5713   -1.4619 C   0  0  0  0  0  0  0  0  0  0  0  0
  -17.7029    0.2527    2.7504 C   0  0  0  0  0  0  0  0  0  0  0  0
   -2.5976    1.2134    1.0472 C   0  0  0  0  0  0  0  0  0  0  0  0
   -2.2919    0.7199   -1.3108 C   0  0  0  0  0  0  0  0  0  0  0  0
   -1.7321    1.0229   -0.0497 C   0  0  0  0  0  0  0  0  0  0  0  0
    2.2082   -0.0630    0.4691 C   0  0  0  0  0  0  0  0  0  0  0  0
  -10.8220    1.4918   -0.4799 H   0  0  0  0  0  0  0  0  0  0  0  0
  -11.1124    3.2130   -0.2164 H   0  0  0  0  0  0  0  0  0  0  0  0
   -8.4469    2.9983   -2.8652 H   0  0  0  0  0  0  0  0  0  0  0  0
   -8.7682    3.6718   -1.2657 H   0  0  0  0  0  0  0  0  0  0  0  0
  -13.2789    3.0074   -1.3759 H   0  0  0  0  0  0  0  0  0  0  0  0
  -12.8931    1.3503   -1.8759 H   0  0  0  0  0  0  0  0  0  0  0  0
   -8.6136    1.4027   -0.3087 H   0  0  0  0  0  0  0  0  0  0  0  0
   -8.5137    0.6970   -1.9323 H   0  0  0  0  0  0  0  0  0  0  0  0
  -13.2447    2.3232    1.0119 H   0  0  0  0  0  0  0  0  0  0  0  0
  -12.8700    0.6581    0.5398 H   0  0  0  0  0  0  0  0  0  0  0  0
   -6.3101    1.7773   -2.2759 H   0  0  0  0  0  0  0  0  0  0  0  0
   -6.4596    2.6388   -0.7329 H   0  0  0  0  0  0  0  0  0  0  0  0
  -15.0445    0.4193   -0.5692 H   0  0  0  0  0  0  0  0  0  0  0  0
  -15.4270    2.1245   -0.2695 H   0  0  0  0  0  0  0  0  0  0  0  0
  -12.0593    3.6420   -3.2205 H   0  0  0  0  0  0  0  0  0  0  0  0
  -10.8515    4.8133   -2.2565 H   0  0  0  0  0  0  0  0  0  0  0  0
   -6.4857    0.4406    0.4776 H   0  0  0  0  0  0  0  0  0  0  0  0
  -15.0238   -0.0152    1.8933 H   0  0  0  0  0  0  0  0  0  0  0  0
  -15.3685    1.6935    2.2018 H   0  0  0  0  0  0  0  0  0  0  0  0
  -17.5502    1.4627    0.9766 H   0  0  0  0  0  0  0  0  0  0  0  0
  -17.2106   -0.2542    0.7132 H   0  0  0  0  0  0  0  0  0  0  0  0
   -9.3429    4.6822   -4.1266 H   0  0  0  0  0  0  0  0  0  0  0  0
  -10.9358    4.9315   -4.8374 H   0  0  0  0  0  0  0  0  0  0  0  0
  -10.2060    3.3145   -4.8717 H   0  0  0  0  0  0  0  0  0  0  0  0
   -4.5889    1.1887    1.7112 H   0  0  0  0  0  0  0  0  0  0  0  0
   -4.0484    0.3388   -2.3874 H   0  0  0  0  0  0  0  0  0  0  0  0
  -18.7705    0.0681    2.6086 H   0  0  0  0  0  0  0  0  0  0  0  0
  -17.2501   -0.6410    3.1844 H   0  0  0  0  0  0  0  0  0  0  0  0
  -17.5847    1.0862    3.4458 H   0  0  0  0  0  0  0  0  0  0  0  0
   -5.8651   -1.3984   -0.6499 H   0  0  0  0  0  0  0  0  0  0  0  0
   -2.2163    1.4452    1.9704 H   0  0  0  0  0  0  0  0  0  0  0  0
   -1.6945    0.6085   -2.1321 H   0  0  0  0  0  0  0  0  0  0  0  0
   -0.0972    1.7101    0.8894 H   0  0  0  0  0  0  0  0  0  0  0  0
    1.8505   -0.5725    1.3674 H   0  0  0  0  0  0  0  0  0  0  0  0
    2.9486   -0.6878   -0.0324 H   0  0  0  0  0  0  0  0  0  0  0  0
    2.6602    0.8906    0.7467 H   0  0  0  0  0  0  0  0  0  0  0  0
  -10.5671    1.8958   -2.8053 H   0  0  0  0  0  0  0  0  0  0  0  0
  1  3  2  0  0  0  0
  1  4  2  0  0  0  0
  1  6  1  0  0  0  0
  1 26  1  0  0  0  0
 15  2  1  0  0  0  0
  5  7  1  0  0  0  0
  5  8  1  0  0  0  0
  5 14  1  0  0  0  0
  6 25  1  0  0  0  0
  7  9  1  0  0  0  0
  8 10  1  0  0  0  0
  9 11  1  0  0  0  0
 10 12  1  0  0  0  0
 11 13  1  0  0  0  0
 15 12  1  0  0  0  0
 13 16  1  0  0  0  0
 14 19  1  0  0  0  0
 15 17  1  0  0  0  0
 16 18  1  0  0  0  0
 17 20  2  0  0  0  0
 17 21  1  0  0  0  0
 18 22  1  0  0  0  0
 20 23  1  0  0  0  0
 21 24  2  0  0  0  0
 23 25  2  0  0  0  0
 24 25  1  0  0  0  0
  7 27  1  0  0  0  0
  7 28  1  0  0  0  0
  8 29  1  0  0  0  0
  8 30  1  0  0  0  0
  9 31  1  0  0  0  0
  9 32  1  0  0  0  0
 10 33  1  0  0  0  0
 10 34  1  0  0  0  0
 11 35  1  0  0  0  0
 11 36  1  0  0  0  0
 12 37  1  0  0  0  0
 12 38  1  0  0  0  0
 13 39  1  0  0  0  0
 13 40  1  0  0  0  0
 14 41  1  0  0  0  0
 14 42  1  0  0  0  0
 15 43  1  0  0  0  0
 16 44  1  0  0  0  0
 16 45  1  0  0  0  0
 18 46  1  0  0  0  0
 18 47  1  0  0  0  0
 19 48  1  0  0  0  0
 19 49  1  0  0  0  0
 19 50  1  0  0  0  0
 20 51  1  0  0  0  0
 21 52  1  0  0  0  0
 22 53  1  0  0  0  0
 22 54  1  0  0  0  0
 22 55  1  0  0  0  0
  2 56  1  0  0  0  0
 23 57  1  0  0  0  0
 24 58  1  0  0  0  0
  6 59  1  0  0  0  0
 26 60  1  0  0  0  0
 26 61  1  0  0  0  0
 26 62  1  0  0  0  0
  5 63  1  0  0  0  0
M  CHG  1   5   1
M  END
$$$$
Methadone_p
  Mrv2011 02102114063D          

 51 52  0  0  1  0            999 V2000
   -5.0998    1.1985   -4.0868 O   0  0  0  0  0  0  0  0  0  0  0  0
   -4.0343   -2.3193   -1.2945 N   0  3  1  0  0  0  0  0  0  0  0  0
   -4.9876   -1.0147   -5.0299 C   0  0  1  0  0  0  0  0  0  0  0  0
   -5.0415   -1.5027   -3.4949 C   0  0  2  0  0  0  0  0  0  0  0  0
   -3.7255   -1.9251   -2.7348 C   0  0  1  0  0  0  0  0  0  0  0  0
   -4.1175   -2.0438   -5.7986 C   0  0  0  0  0  0  0  0  0  0  0  0
   -6.4100   -1.0285   -5.6150 C   0  0  0  0  0  0  0  0  0  0  0  0
   -4.6147    0.4817   -4.9998 C   0  0  0  0  0  0  0  0  0  0  0  0
   -2.6406   -0.8128   -2.8849 C   0  0  0  0  0  0  0  0  0  0  0  0
   -3.8028    1.3289   -5.9244 C   0  0  1  0  0  0  0  0  0  0  0  0
   -4.3098   -3.4485   -5.5940 C   0  0  0  0  0  0  0  0  0  0  0  0
   -6.7407   -1.6047   -6.8787 C   0  0  0  0  0  0  0  0  0  0  0  0
   -3.1774   -1.7388   -6.8239 C   0  0  0  0  0  0  0  0  0  0  0  0
   -7.5059   -0.4537   -4.9035 C   0  0  0  0  0  0  0  0  0  0  0  0
   -4.8572   -3.5737   -1.1730 C   0  0  0  0  0  0  0  0  0  0  0  0
   -2.8473   -2.4040   -0.3825 C   0  0  0  0  0  0  0  0  0  0  0  0
   -4.4982    1.5913   -7.2833 C   0  0  0  0  0  0  0  0  0  0  0  0
   -3.5531   -4.4389   -6.2483 C   0  0  0  0  0  0  0  0  0  0  0  0
   -8.0600   -1.6524   -7.3670 C   0  0  0  0  0  0  0  0  0  0  0  0
   -2.4110   -2.7132   -7.4885 C   0  0  0  0  0  0  0  0  0  0  0  0
   -8.8260   -0.4835   -5.3902 C   0  0  0  0  0  0  0  0  0  0  0  0
   -2.5830   -4.0684   -7.1873 C   0  0  0  0  0  0  0  0  0  0  0  0
   -9.1047   -1.0855   -6.6242 C   0  0  0  0  0  0  0  0  0  0  0  0
   -5.7401   -2.3361   -3.4514 H   0  0  0  0  0  0  0  0  0  0  0  0
   -5.5107   -0.7614   -2.8445 H   0  0  0  0  0  0  0  0  0  0  0  0
   -3.3050   -2.8074   -3.2182 H   0  0  0  0  0  0  0  0  0  0  0  0
   -2.4159   -0.6248   -3.9328 H   0  0  0  0  0  0  0  0  0  0  0  0
   -1.6943   -1.1165   -2.4398 H   0  0  0  0  0  0  0  0  0  0  0  0
   -2.9720    0.1156   -2.4162 H   0  0  0  0  0  0  0  0  0  0  0  0
   -3.6305    2.3209   -5.4895 H   0  0  0  0  0  0  0  0  0  0  0  0
   -2.7939    0.9375   -6.0314 H   0  0  0  0  0  0  0  0  0  0  0  0
   -5.0216   -3.7911   -4.9504 H   0  0  0  0  0  0  0  0  0  0  0  0
   -6.0247   -2.0129   -7.4778 H   0  0  0  0  0  0  0  0  0  0  0  0
   -3.0407   -0.8071   -7.1666 H   0  0  0  0  0  0  0  0  0  0  0  0
   -7.3622   -0.0027   -3.9998 H   0  0  0  0  0  0  0  0  0  0  0  0
   -5.8830   -3.3982   -1.4956 H   0  0  0  0  0  0  0  0  0  0  0  0
   -4.9310   -3.9230   -0.1402 H   0  0  0  0  0  0  0  0  0  0  0  0
   -4.4361   -4.3857   -1.7705 H   0  0  0  0  0  0  0  0  0  0  0  0
   -2.3797   -1.4266   -0.2616 H   0  0  0  0  0  0  0  0  0  0  0  0
   -3.1354   -2.7156    0.6236 H   0  0  0  0  0  0  0  0  0  0  0  0
   -2.1077   -3.1098   -0.7678 H   0  0  0  0  0  0  0  0  0  0  0  0
   -3.8830    2.2640   -7.8851 H   0  0  0  0  0  0  0  0  0  0  0  0
   -4.6563    0.6747   -7.8516 H   0  0  0  0  0  0  0  0  0  0  0  0
   -5.4683    2.0678   -7.1268 H   0  0  0  0  0  0  0  0  0  0  0  0
   -3.7148   -5.4291   -6.0456 H   0  0  0  0  0  0  0  0  0  0  0  0
   -8.2604   -2.0987   -8.2653 H   0  0  0  0  0  0  0  0  0  0  0  0
   -1.7390   -2.4334   -8.2071 H   0  0  0  0  0  0  0  0  0  0  0  0
   -9.5825   -0.0672   -4.8445 H   0  0  0  0  0  0  0  0  0  0  0  0
   -2.0207   -4.7767   -7.6644 H   0  0  0  0  0  0  0  0  0  0  0  0
  -10.0615   -1.1067   -6.9828 H   0  0  0  0  0  0  0  0  0  0  0  0
   -4.6161   -1.5715   -0.9099 H   0  0  0  0  0  0  0  0  0  0  0  0
  1  8  2  0  0  0  0
  5  2  1  0  0  0  0
  2 15  1  0  0  0  0
  2 16  1  0  0  0  0
  3  4  1  0  0  0  0
  3  6  1  0  0  0  0
  3  7  1  0  0  0  0
  3  8  1  0  0  0  0
  5  4  1  0  0  0  0
  5  9  1  0  0  0  0
  6 11  2  0  0  0  0
  6 13  1  0  0  0  0
  7 12  2  0  0  0  0
  7 14  1  0  0  0  0
  8 10  1  0  0  0  0
 10 17  1  0  0  0  0
 11 18  1  0  0  0  0
 12 19  1  0  0  0  0
 13 20  2  0  0  0  0
 14 21  2  0  0  0  0
 18 22  2  0  0  0  0
 19 23  2  0  0  0  0
 20 22  1  0  0  0  0
 21 23  1  0  0  0  0
  4 24  1  0  0  0  0
  4 25  1  0  0  0  0
  5 26  1  0  0  0  0
  9 27  1  0  0  0  0
  9 28  1  0  0  0  0
  9 29  1  0  0  0  0
 10 30  1  0  0  0  0
 10 31  1  0  0  0  0
 11 32  1  0  0  0  0
 12 33  1  0  0  0  0
 13 34  1  0  0  0  0
 14 35  1  0  0  0  0
 15 36  1  0  0  0  0
 15 37  1  0  0  0  0
 15 38  1  0  0  0  0
 16 39  1  0  0  0  0
 16 40  1  0  0  0  0
 16 41  1  0  0  0  0
 17 42  1  0  0  0  0
 17 43  1  0  0  0  0
 17 44  1  0  0  0  0
 18 45  1  0  0  0  0
 19 46  1  0  0  0  0
 20 47  1  0  0  0  0
 21 48  1  0  0  0  0
 22 49  1  0  0  0  0
 23 50  1  0  0  0  0
  2 51  1  0  0  0  0
M  CHG  1   2   1
M  END
$$$$
Mibefradil_p
  Mrv2011 02102114073D          

 75 78  0  0  1  0            999 V2000
    1.4112    0.3051    0.2363 F   0  0  0  0  0  0  0  0  0  0  0  0
   -6.3774    1.2544    0.0713 O   0  0  0  0  0  0  0  0  0  0  0  0
   -7.7155   -0.4210   -0.6627 O   0  0  0  0  0  0  0  0  0  0  0  0
   -9.5121    0.4413    1.3169 O   0  0  0  0  0  0  0  0  0  0  0  0
   -5.7058    2.1546    4.1653 N   0  3  2  0  0  0  0  0  0  0  0  0
  -11.2326    3.8736    4.8263 N   0  0  0  0  0  0  0  0  0  0  0  0
  -10.5281    5.2031    3.2008 N   0  0  0  0  0  0  0  0  0  0  0  0
   -4.9539    1.2175    0.3777 C   0  0  1  0  0  0  0  0  0  0  0  0
   -4.2022    0.0113   -0.3352 C   0  0  1  0  0  0  0  0  0  0  0  0
   -4.3482    2.5528   -0.1751 C   0  0  2  0  0  0  0  0  0  0  0  0
   -4.5579   -0.3084   -1.8553 C   0  0  2  0  0  0  0  0  0  0  0  0
   -4.8033    1.1497    1.9545 C   0  0  2  0  0  0  0  0  0  0  0  0
   -2.7127    0.1033   -0.1320 C   0  0  0  0  0  0  0  0  0  0  0  0
   -2.7997    2.6560   -0.0635 C   0  0  2  0  0  0  0  0  0  0  0  0
   -2.0569    1.3659   -0.0519 C   0  0  0  0  0  0  0  0  0  0  0  0
   -5.2995    2.4035    2.7385 C   0  0  1  0  0  0  0  0  0  0  0  0
   -4.1955   -1.7684   -2.2655 C   0  0  0  0  0  0  0  0  0  0  0  0
   -4.0350    0.6662   -2.9632 C   0  0  0  0  0  0  0  0  0  0  0  0
   -1.9298   -1.0727   -0.0070 C   0  0  0  0  0  0  0  0  0  0  0  0
   -0.6500    1.4182    0.0778 C   0  0  0  0  0  0  0  0  0  0  0  0
   -0.5318   -1.0058    0.1124 C   0  0  0  0  0  0  0  0  0  0  0  0
   -7.3559    0.3107    0.2876 C   0  0  0  0  0  0  0  0  0  0  0  0
    0.1116    0.2408    0.1413 C   0  0  0  0  0  0  0  0  0  0  0  0
   -6.5106    3.3075    4.7383 C   0  0  1  0  0  0  0  0  0  0  0  0
   -4.5161    1.8536    5.0419 C   0  0  0  0  0  0  0  0  0  0  0  0
   -8.0069    3.2786    4.3178 C   0  0  1  0  0  0  0  0  0  0  0  0
   -8.1109    0.1951    1.5504 C   0  0  1  0  0  0  0  0  0  0  0  0
   -8.8046    4.4903    4.8645 C   0  0  1  0  0  0  0  0  0  0  0  0
  -10.1706    4.5254    4.3128 C   0  0  0  0  0  0  0  0  0  0  0  0
  -10.3359    0.2233    2.4765 C   0  0  0  0  0  0  0  0  0  0  0  0
  -12.2832    4.1316    4.0429 C   0  0  0  0  0  0  0  0  0  0  0  0
  -11.8365    4.9666    3.0232 C   0  0  0  0  0  0  0  0  0  0  0  0
  -13.6227    3.7132    4.1134 C   0  0  0  0  0  0  0  0  0  0  0  0
  -12.7111    5.4210    2.0228 C   0  0  0  0  0  0  0  0  0  0  0  0
  -14.5131    4.1611    3.1123 C   0  0  0  0  0  0  0  0  0  0  0  0
  -14.0599    5.0073    2.0734 C   0  0  0  0  0  0  0  0  0  0  0  0
   -4.5484   -0.8609    0.2306 H   0  0  0  0  0  0  0  0  0  0  0  0
   -4.7954    3.4197    0.3136 H   0  0  0  0  0  0  0  0  0  0  0  0
   -4.6290    2.6692   -1.2159 H   0  0  0  0  0  0  0  0  0  0  0  0
   -5.6403   -0.2706   -1.9398 H   0  0  0  0  0  0  0  0  0  0  0  0
   -3.7591    0.9877    2.2238 H   0  0  0  0  0  0  0  0  0  0  0  0
   -5.3479    0.2771    2.3207 H   0  0  0  0  0  0  0  0  0  0  0  0
   -2.5552    3.1923    0.8569 H   0  0  0  0  0  0  0  0  0  0  0  0
   -2.4349    3.2597   -0.8991 H   0  0  0  0  0  0  0  0  0  0  0  0
   -6.1555    2.7976    2.1954 H   0  0  0  0  0  0  0  0  0  0  0  0
   -4.5239    3.1753    2.7080 H   0  0  0  0  0  0  0  0  0  0  0  0
   -4.5248   -2.4835   -1.5124 H   0  0  0  0  0  0  0  0  0  0  0  0
   -4.6906   -2.0297   -3.2025 H   0  0  0  0  0  0  0  0  0  0  0  0
   -3.1203   -1.8763   -2.4124 H   0  0  0  0  0  0  0  0  0  0  0  0
   -4.7130    1.5118   -3.0860 H   0  0  0  0  0  0  0  0  0  0  0  0
   -3.9980    0.1763   -3.9405 H   0  0  0  0  0  0  0  0  0  0  0  0
   -3.0329    1.0357   -2.7416 H   0  0  0  0  0  0  0  0  0  0  0  0
   -2.3722   -1.9946   -0.0104 H   0  0  0  0  0  0  0  0  0  0  0  0
   -0.1727    2.3205    0.1334 H   0  0  0  0  0  0  0  0  0  0  0  0
    0.0145   -1.8690    0.1800 H   0  0  0  0  0  0  0  0  0  0  0  0
   -6.4995    3.2801    5.8327 H   0  0  0  0  0  0  0  0  0  0  0  0
   -6.0636    4.2619    4.4407 H   0  0  0  0  0  0  0  0  0  0  0  0
   -4.8503    1.5827    6.0468 H   0  0  0  0  0  0  0  0  0  0  0  0
   -3.9459    1.0050    4.6599 H   0  0  0  0  0  0  0  0  0  0  0  0
   -3.8486    2.7163    5.1196 H   0  0  0  0  0  0  0  0  0  0  0  0
   -8.0924    3.2728    3.2293 H   0  0  0  0  0  0  0  0  0  0  0  0
   -8.4597    2.3569    4.6939 H   0  0  0  0  0  0  0  0  0  0  0  0
   -7.7388    0.9176    2.2729 H   0  0  0  0  0  0  0  0  0  0  0  0
   -7.9549   -0.8107    1.9520 H   0  0  0  0  0  0  0  0  0  0  0  0
   -8.8566    4.4380    5.9547 H   0  0  0  0  0  0  0  0  0  0  0  0
   -8.2948    5.4199    4.5956 H   0  0  0  0  0  0  0  0  0  0  0  0
  -11.2321    3.3164    5.6209 H   0  0  0  0  0  0  0  0  0  0  0  0
  -11.3610    0.5048    2.2354 H   0  0  0  0  0  0  0  0  0  0  0  0
  -10.0048    0.8324    3.3200 H   0  0  0  0  0  0  0  0  0  0  0  0
  -10.3286   -0.8313    2.7618 H   0  0  0  0  0  0  0  0  0  0  0  0
  -13.9415    3.1015    4.8669 H   0  0  0  0  0  0  0  0  0  0  0  0
  -12.3770    6.0356    1.2770 H   0  0  0  0  0  0  0  0  0  0  0  0
  -15.4921    3.8717    3.1399 H   0  0  0  0  0  0  0  0  0  0  0  0
  -14.7134    5.3226    1.3533 H   0  0  0  0  0  0  0  0  0  0  0  0
   -6.3159    1.3098    4.1365 H   0  0  0  0  0  0  0  0  0  0  0  0
  1 23  1  0  0  0  0
  8  2  1  0  0  0  0
  2 22  1  0  0  0  0
  3 22  2  0  0  0  0
  4 27  1  0  0  0  0
  4 30  1  0  0  0  0
  5 16  1  0  0  0  0
  5 24  1  0  0  0  0
  5 25  1  0  0  0  0
  6 29  1  0  0  0  0
  6 31  1  0  0  0  0
  7 29  2  0  0  0  0
  7 32  1  0  0  0  0
  8  9  1  0  0  0  0
  8 10  1  0  0  0  0
  8 12  1  0  0  0  0
  9 11  1  0  0  0  0
  9 13  1  0  0  0  0
 10 14  1  0  0  0  0
 11 17  1  0  0  0  0
 11 18  1  0  0  0  0
 12 16  1  0  0  0  0
 13 15  2  0  0  0  0
 13 19  1  0  0  0  0
 14 15  1  0  0  0  0
 15 20  1  0  0  0  0
 19 21  2  0  0  0  0
 20 23  2  0  0  0  0
 21 23  1  0  0  0  0
 22 27  1  0  0  0  0
 24 26  1  0  0  0  0
 26 28  1  0  0  0  0
 28 29  1  0  0  0  0
 31 32  1  0  0  0  0
 31 33  2  0  0  0  0
 32 34  2  0  0  0  0
 33 35  1  0  0  0  0
 34 36  1  0  0  0  0
 35 36  2  0  0  0  0
  9 37  1  0  0  0  0
 10 38  1  0  0  0  0
 10 39  1  0  0  0  0
 11 40  1  0  0  0  0
 12 41  1  0  0  0  0
 12 42  1  0  0  0  0
 14 43  1  0  0  0  0
 14 44  1  0  0  0  0
 16 45  1  0  0  0  0
 16 46  1  0  0  0  0
 17 47  1  0  0  0  0
 17 48  1  0  0  0  0
 17 49  1  0  0  0  0
 18 50  1  0  0  0  0
 18 51  1  0  0  0  0
 18 52  1  0  0  0  0
 19 53  1  0  0  0  0
 20 54  1  0  0  0  0
 21 55  1  0  0  0  0
 24 56  1  0  0  0  0
 24 57  1  0  0  0  0
 25 58  1  0  0  0  0
 25 59  1  0  0  0  0
 25 60  1  0  0  0  0
 26 61  1  0  0  0  0
 26 62  1  0  0  0  0
 27 63  1  0  0  0  0
 27 64  1  0  0  0  0
 28 65  1  0  0  0  0
 28 66  1  0  0  0  0
  6 67  1  0  0  0  0
 30 68  1  0  0  0  0
 30 69  1  0  0  0  0
 30 70  1  0  0  0  0
 33 71  1  0  0  0  0
 34 72  1  0  0  0  0
 35 73  1  0  0  0  0
 36 74  1  0  0  0  0
  5 75  1  0  0  0  0
M  CHG  1   5   1
M  END
$$$$
Mitoxantrone_p
  Mrv2011 02102114313D          

 62 64  0  0  0  0            999 V2000
   -6.1178    4.1902    2.9622 O   0  0  0  0  0  0  0  0  0  0  0  0
   -3.9611    5.7902    7.5631 O   0  0  0  0  0  0  0  0  0  0  0  0
   -8.1293    5.8225    3.2361 O   0  0  0  0  0  0  0  0  0  0  0  0
   -5.9086    7.4618    8.0001 O   0  0  0  0  0  0  0  0  0  0  0  0
   -6.6170   -3.1994   -1.5702 O   0  0  0  0  0  0  0  0  0  0  0  0
    3.8031    7.5411   10.8187 O   0  0  0  0  0  0  0  0  0  0  0  0
   -4.1887    2.4677    2.5244 N   0  0  0  0  0  0  0  0  0  0  0  0
   -1.7729    4.4089    7.1463 N   0  0  0  0  0  0  0  0  0  0  0  0
   -5.2933   -0.7066    0.8599 N   0  3  2  0  0  0  0  0  0  0  0  0
    1.3179    6.0333    8.4872 N   0  3  1  0  0  0  0  0  0  0  0  0
   -4.3173    4.0184    4.4322 C   0  0  0  0  0  0  0  0  0  0  0  0
   -3.7156    4.4827    5.6476 C   0  0  0  0  0  0  0  0  0  0  0  0
   -3.6559    3.0056    3.6662 C   0  0  0  0  0  0  0  0  0  0  0  0
   -2.4304    3.9821    6.0276 C   0  0  0  0  0  0  0  0  0  0  0  0
   -6.2597    5.5697    4.8089 C   0  0  0  0  0  0  0  0  0  0  0  0
   -5.6799    6.0023    6.0384 C   0  0  0  0  0  0  0  0  0  0  0  0
   -5.5811    4.5771    4.0277 C   0  0  0  0  0  0  0  0  0  0  0  0
   -4.4262    5.4443    6.4513 C   0  0  0  0  0  0  0  0  0  0  0  0
   -2.3975    2.5271    4.0769 C   0  0  0  0  0  0  0  0  0  0  0  0
   -1.7947    3.0040    5.2397 C   0  0  0  0  0  0  0  0  0  0  0  0
   -4.4517    1.0725    2.3453 C   0  0  2  0  0  0  0  0  0  0  0  0
   -0.4647    4.9838    7.1360 C   0  0  1  0  0  0  0  0  0  0  0  0
   -7.5065    6.1315    4.4014 C   0  0  0  0  0  0  0  0  0  0  0  0
   -6.3749    6.9677    6.8254 C   0  0  0  0  0  0  0  0  0  0  0  0
   -5.0438    0.7511    0.9544 C   0  0  1  0  0  0  0  0  0  0  0  0
   -0.0239    5.4122    8.5519 C   0  0  1  0  0  0  0  0  0  0  0  0
   -8.1799    7.0622    5.2073 C   0  0  0  0  0  0  0  0  0  0  0  0
   -7.6167    7.4778    6.4162 C   0  0  0  0  0  0  0  0  0  0  0  0
   -5.8507   -1.1849   -0.4228 C   0  0  2  0  0  0  0  0  0  0  0  0
    1.8730    6.4777    9.7832 C   0  0  2  0  0  0  0  0  0  0  0  0
   -6.0743   -2.7095   -0.3502 C   0  0  1  0  0  0  0  0  0  0  0  0
    3.2637    7.1105    9.5739 C   0  0  1  0  0  0  0  0  0  0  0  0
   -1.8960    1.8285    3.5235 H   0  0  0  0  0  0  0  0  0  0  0  0
   -0.8861    2.6167    5.5064 H   0  0  0  0  0  0  0  0  0  0  0  0
   -4.4843    3.0744    1.8283 H   0  0  0  0  0  0  0  0  0  0  0  0
   -2.2551    4.3934    7.9865 H   0  0  0  0  0  0  0  0  0  0  0  0
   -5.1590    0.7558    3.1151 H   0  0  0  0  0  0  0  0  0  0  0  0
   -3.5349    0.4939    2.4678 H   0  0  0  0  0  0  0  0  0  0  0  0
    0.2628    4.2703    6.7427 H   0  0  0  0  0  0  0  0  0  0  0  0
   -0.4783    5.8647    6.4877 H   0  0  0  0  0  0  0  0  0  0  0  0
   -4.3340    1.0554    0.1790 H   0  0  0  0  0  0  0  0  0  0  0  0
   -5.9812    1.2987    0.8172 H   0  0  0  0  0  0  0  0  0  0  0  0
    0.0050    4.5352    9.2047 H   0  0  0  0  0  0  0  0  0  0  0  0
   -0.7433    6.1299    8.9561 H   0  0  0  0  0  0  0  0  0  0  0  0
   -9.0814    7.4469    4.9130 H   0  0  0  0  0  0  0  0  0  0  0  0
   -8.1099    8.1628    6.9943 H   0  0  0  0  0  0  0  0  0  0  0  0
   -5.9469   -0.9677    1.6037 H   0  0  0  0  0  0  0  0  0  0  0  0
    1.9664    5.3574    8.0772 H   0  0  0  0  0  0  0  0  0  0  0  0
   -5.1563   -0.9581   -1.2360 H   0  0  0  0  0  0  0  0  0  0  0  0
   -6.8040   -0.6902   -0.6229 H   0  0  0  0  0  0  0  0  0  0  0  0
    1.9664    5.6226   10.4582 H   0  0  0  0  0  0  0  0  0  0  0  0
    1.2073    7.2166   10.2376 H   0  0  0  0  0  0  0  0  0  0  0  0
   -7.4675    6.0160    2.5405 H   0  0  0  0  0  0  0  0  0  0  0  0
   -5.0103    7.7937    7.7946 H   0  0  0  0  0  0  0  0  0  0  0  0
   -6.7693   -2.9473    0.4577 H   0  0  0  0  0  0  0  0  0  0  0  0
   -5.1268   -3.2179   -0.1627 H   0  0  0  0  0  0  0  0  0  0  0  0
    3.1863    7.9736    8.9084 H   0  0  0  0  0  0  0  0  0  0  0  0
    3.9453    6.3802    9.1309 H   0  0  0  0  0  0  0  0  0  0  0  0
   -6.7245   -4.1638   -1.4257 H   0  0  0  0  0  0  0  0  0  0  0  0
    4.6765    7.9261   10.5941 H   0  0  0  0  0  0  0  0  0  0  0  0
   -4.5345   -1.2733    1.2108 H   0  0  0  0  0  0  0  0  0  0  0  0
    1.4265    6.7038    7.7397 H   0  0  0  0  0  0  0  0  0  0  0  0
  1 17  2  0  0  0  0
  2 18  2  0  0  0  0
  3 23  1  0  0  0  0
  4 24  1  0  0  0  0
  5 31  1  0  0  0  0
  6 32  1  0  0  0  0
  7 13  1  0  0  0  0
  7 21  1  0  0  0  0
  8 14  1  0  0  0  0
  8 22  1  0  0  0  0
  9 25  1  0  0  0  0
  9 29  1  0  0  0  0
 10 26  1  0  0  0  0
 10 30  1  0  0  0  0
 11 12  2  0  0  0  0
 11 13  1  0  0  0  0
 11 17  1  0  0  0  0
 12 14  1  0  0  0  0
 12 18  1  0  0  0  0
 13 19  2  0  0  0  0
 14 20  2  0  0  0  0
 15 16  2  0  0  0  0
 15 17  1  0  0  0  0
 15 23  1  0  0  0  0
 16 18  1  0  0  0  0
 16 24  1  0  0  0  0
 19 20  1  0  0  0  0
 21 25  1  0  0  0  0
 22 26  1  0  0  0  0
 23 27  2  0  0  0  0
 24 28  2  0  0  0  0
 27 28  1  0  0  0  0
 29 31  1  0  0  0  0
 30 32  1  0  0  0  0
 19 33  1  0  0  0  0
 20 34  1  0  0  0  0
  7 35  1  0  0  0  0
  8 36  1  0  0  0  0
 21 37  1  0  0  0  0
 21 38  1  0  0  0  0
 22 39  1  0  0  0  0
 22 40  1  0  0  0  0
 25 41  1  0  0  0  0
 25 42  1  0  0  0  0
 26 43  1  0  0  0  0
 26 44  1  0  0  0  0
 27 45  1  0  0  0  0
 28 46  1  0  0  0  0
  9 47  1  0  0  0  0
 10 48  1  0  0  0  0
 29 49  1  0  0  0  0
 29 50  1  0  0  0  0
 30 51  1  0  0  0  0
 30 52  1  0  0  0  0
  3 53  1  0  0  0  0
  4 54  1  0  0  0  0
 31 55  1  0  0  0  0
 31 56  1  0  0  0  0
 32 57  1  0  0  0  0
 32 58  1  0  0  0  0
  5 59  1  0  0  0  0
  6 60  1  0  0  0  0
  9 61  1  0  0  0  0
 10 62  1  0  0  0  0
M  CHG  2   9   1  10   1
M  END
$$$$
Moxifloxacin_p
  Mrv2011 02102114093D          

 53 57  0  0  1  0            999 V2000
   -2.1715    2.3930   -1.8839 F   0  0  0  0  0  0  0  0  0  0  0  0
   -1.2261   -0.1658    2.0759 O   0  0  0  0  0  0  0  0  0  0  0  0
   -6.5200    1.0311   -0.2363 O   0  0  0  0  0  0  0  0  0  0  0  0
   -8.5741    0.0376    1.0936 O   0  5  0  0  0  0  0  0  0  0  0  0
   -8.0377   -1.4980    2.5713 O   0  0  0  0  0  0  0  0  0  0  0  0
   -0.0890    1.1974   -0.2310 N   0  0  0  0  0  0  0  0  0  0  0  0
    2.7286    3.3640   -1.2553 N   0  3  1  0  0  0  0  0  0  0  0  0
   -3.9110   -1.0971    2.0060 N   0  0  0  0  0  0  0  0  0  0  0  0
    2.2516    1.3620    0.2687 C   0  0  2  0  0  0  0  0  0  0  0  0
    2.0054    2.0804   -1.0698 C   0  0  1  0  0  0  0  0  0  0  0  0
    1.0118    0.4359    0.3288 C   0  0  1  0  0  0  0  0  0  0  0  0
    0.4663    2.1777   -1.1348 C   0  0  1  0  0  0  0  0  0  0  0  0
    2.3388    2.3472    1.4799 C   0  0  1  0  0  0  0  0  0  0  0  0
   -3.0890   -2.0461    2.7374 C   0  0  1  0  0  0  0  0  0  0  0  0
    3.2332    3.5752    1.1793 C   0  0  1  0  0  0  0  0  0  0  0  0
   -3.4078   -3.5513    2.5981 C   0  0  2  0  0  0  0  0  0  0  0  0
   -2.1421   -2.9862    1.9587 C   0  0  1  0  0  0  0  0  0  0  0  0
    2.7474    4.2924   -0.1031 C   0  0  2  0  0  0  0  0  0  0  0  0
   -1.4801    1.0032   -0.0274 C   0  0  0  0  0  0  0  0  0  0  0  0
   -3.4084   -0.1403    1.1355 C   0  0  0  0  0  0  0  0  0  0  0  0
   -2.0243    0.2148    1.0397 C   0  0  0  0  0  0  0  0  0  0  0  0
   -4.3244    0.5614    0.3022 C   0  0  0  0  0  0  0  0  0  0  0  0
   -2.4536    1.6090   -0.8786 C   0  0  0  0  0  0  0  0  0  0  0  0
   -5.2599   -1.2068    2.2247 C   0  0  0  0  0  0  0  0  0  0  0  0
   -3.8312    1.4226   -0.6973 C   0  0  0  0  0  0  0  0  0  0  0  0
   -6.2175   -0.4785    1.4871 C   0  0  0  0  0  0  0  0  0  0  0  0
   -5.7192    0.3926    0.4903 C   0  0  0  0  0  0  0  0  0  0  0  0
   -7.6124   -0.6624    1.7399 C   0  0  0  0  0  0  0  0  0  0  0  0
   -1.2024    0.8020    3.1422 C   0  0  0  0  0  0  0  0  0  0  0  0
    3.1755    0.7744    0.2205 H   0  0  0  0  0  0  0  0  0  0  0  0
    2.3493    1.4208   -1.8769 H   0  0  0  0  0  0  0  0  0  0  0  0
    0.9112    0.0963    1.3526 H   0  0  0  0  0  0  0  0  0  0  0  0
    1.1766   -0.4482   -0.2934 H   0  0  0  0  0  0  0  0  0  0  0  0
    0.1750    1.9773   -2.1676 H   0  0  0  0  0  0  0  0  0  0  0  0
    0.1262    3.1765   -0.8512 H   0  0  0  0  0  0  0  0  0  0  0  0
    1.3421    2.7087    1.7490 H   0  0  0  0  0  0  0  0  0  0  0  0
    2.7385    1.8194    2.3496 H   0  0  0  0  0  0  0  0  0  0  0  0
   -2.7446   -1.7600    3.7344 H   0  0  0  0  0  0  0  0  0  0  0  0
    3.1979    4.2699    2.0235 H   0  0  0  0  0  0  0  0  0  0  0  0
    4.2706    3.2553    1.0473 H   0  0  0  0  0  0  0  0  0  0  0  0
    3.7003    3.1400   -1.4790 H   0  0  0  0  0  0  0  0  0  0  0  0
   -4.1948   -3.8316    1.8959 H   0  0  0  0  0  0  0  0  0  0  0  0
   -3.2547   -4.1612    3.4903 H   0  0  0  0  0  0  0  0  0  0  0  0
   -2.1613   -2.9074    0.8694 H   0  0  0  0  0  0  0  0  0  0  0  0
   -1.2078   -3.2558    2.4578 H   0  0  0  0  0  0  0  0  0  0  0  0
    1.7513    4.7122    0.0566 H   0  0  0  0  0  0  0  0  0  0  0  0
    3.4226    5.1194   -0.3366 H   0  0  0  0  0  0  0  0  0  0  0  0
   -5.5959   -1.8581    2.9441 H   0  0  0  0  0  0  0  0  0  0  0  0
   -4.4794    1.9201   -1.3201 H   0  0  0  0  0  0  0  0  0  0  0  0
   -0.5050    0.4428    3.8970 H   0  0  0  0  0  0  0  0  0  0  0  0
   -0.8594    1.7803    2.7959 H   0  0  0  0  0  0  0  0  0  0  0  0
   -2.1832    0.9030    3.6119 H   0  0  0  0  0  0  0  0  0  0  0  0
    2.3257    3.8464   -2.0622 H   0  0  0  0  0  0  0  0  0  0  0  0
  1 23  1  0  0  0  0
  2 21  1  0  0  0  0
  2 29  1  0  0  0  0
  3 27  2  0  0  0  0
  4 28  1  0  0  0  0
  5 28  2  0  0  0  0
  6 11  1  0  0  0  0
  6 12  1  0  0  0  0
  6 19  1  0  0  0  0
 10  7  1  0  0  0  0
  7 18  1  0  0  0  0
  8 14  1  0  0  0  0
  8 20  1  0  0  0  0
  8 24  1  0  0  0  0
  9 10  1  0  0  0  0
  9 11  1  0  0  0  0
  9 13  1  0  0  0  0
 10 12  1  0  0  0  0
 13 15  1  0  0  0  0
 14 16  1  0  0  0  0
 14 17  1  0  0  0  0
 15 18  1  0  0  0  0
 16 17  1  0  0  0  0
 19 21  2  0  0  0  0
 19 23  1  0  0  0  0
 20 21  1  0  0  0  0
 20 22  2  0  0  0  0
 22 25  1  0  0  0  0
 22 27  1  0  0  0  0
 23 25  2  0  0  0  0
 24 26  2  0  0  0  0
 26 27  1  0  0  0  0
 26 28  1  0  0  0  0
  9 30  1  0  0  0  0
 10 31  1  0  0  0  0
 11 32  1  0  0  0  0
 11 33  1  0  0  0  0
 12 34  1  0  0  0  0
 12 35  1  0  0  0  0
 13 36  1  0  0  0  0
 13 37  1  0  0  0  0
 14 38  1  0  0  0  0
 15 39  1  0  0  0  0
 15 40  1  0  0  0  0
  7 41  1  0  0  0  0
 16 42  1  0  0  0  0
 16 43  1  0  0  0  0
 17 44  1  0  0  0  0
 17 45  1  0  0  0  0
 18 46  1  0  0  0  0
 18 47  1  0  0  0  0
 24 48  1  0  0  0  0
 25 49  1  0  0  0  0
 29 50  1  0  0  0  0
 29 51  1  0  0  0  0
 29 52  1  0  0  0  0
  7 53  1  0  0  0  0
M  CHG  2   4  -1   7   1
M  END
$$$$
Paliperidone_p
  Mrv2011 02102114323D          

 59 63  0  0  1  0            999 V2000
    3.2577   -8.8765    9.1658 F   0  0  0  0  0  0  0  0  0  0  0  0
    3.5597   -9.4044    4.3650 O   0  0  0  0  0  0  0  0  0  0  0  0
   -4.2076   -0.6887   -4.5462 O   0  0  0  0  0  0  0  0  0  0  0  0
   -1.9785   -1.4607    0.7263 O   0  0  0  0  0  0  0  0  0  0  0  0
    0.2257   -5.3490    0.9106 N   0  3  2  0  0  0  0  0  0  0  0  0
   -2.8124   -0.6505   -1.2313 N   0  0  0  0  0  0  0  0  0  0  0  0
    2.8513   -8.8377    3.4185 N   0  0  0  0  0  0  0  0  0  0  0  0
   -1.8826   -1.4636   -3.2438 N   0  0  0  0  0  0  0  0  0  0  0  0
    0.9774   -7.1473    3.1865 C   0  0  2  0  0  0  0  0  0  0  0  0
    0.5889   -7.7121    1.7906 C   0  0  2  0  0  0  0  0  0  0  0  0
    1.5723   -5.7187    3.0319 C   0  0  2  0  0  0  0  0  0  0  0  0
   -0.3531   -6.7329    1.0384 C   0  0  2  0  0  0  0  0  0  0  0  0
    0.6043   -4.7913    2.2525 C   0  0  2  0  0  0  0  0  0  0  0  0
   -0.6670   -4.4404    0.1032 C   0  0  1  0  0  0  0  0  0  0  0  0
    1.9188   -8.0131    3.9441 C   0  0  0  0  0  0  0  0  0  0  0  0
   -0.0169   -3.1112   -0.3885 C   0  0  1  0  0  0  0  0  0  0  0  0
   -0.9718   -2.2683   -1.1843 C   0  0  0  0  0  0  0  0  0  0  0  0
   -3.7611    0.2009   -0.5203 C   0  0  2  0  0  0  0  0  0  0  0  0
   -3.7006    0.1100   -3.4760 C   0  0  1  0  0  0  0  0  0  0  0  0
   -4.4129    1.3251   -1.3687 C   0  0  2  0  0  0  0  0  0  0  0  0
   -4.8934    0.7382   -2.7106 C   0  0  2  0  0  0  0  0  0  0  0  0
   -2.7900   -0.6852   -2.6072 C   0  0  0  0  0  0  0  0  0  0  0  0
    2.0499   -8.0883    5.3275 C   0  0  0  0  0  0  0  0  0  0  0  0
   -1.9346   -1.4501   -0.5299 C   0  0  0  0  0  0  0  0  0  0  0  0
   -0.9820   -2.2474   -2.6043 C   0  0  0  0  0  0  0  0  0  0  0  0
    3.1046   -8.9605    5.5567 C   0  0  0  0  0  0  0  0  0  0  0  0
    1.3619   -7.4754    6.3916 C   0  0  0  0  0  0  0  0  0  0  0  0
   -0.0678   -3.0438   -3.4567 C   0  0  0  0  0  0  0  0  0  0  0  0
    3.5437   -9.2433    6.8598 C   0  0  0  0  0  0  0  0  0  0  0  0
    1.7808   -7.7614    7.7089 C   0  0  0  0  0  0  0  0  0  0  0  0
    2.8709   -8.6342    7.9425 C   0  0  0  0  0  0  0  0  0  0  0  0
    0.0554   -7.0720    3.7711 H   0  0  0  0  0  0  0  0  0  0  0  0
    0.0840   -8.6731    1.9157 H   0  0  0  0  0  0  0  0  0  0  0  0
    1.4837   -7.8812    1.1848 H   0  0  0  0  0  0  0  0  0  0  0  0
    2.5265   -5.7672    2.4972 H   0  0  0  0  0  0  0  0  0  0  0  0
    1.7608   -5.2854    4.0189 H   0  0  0  0  0  0  0  0  0  0  0  0
   -0.5413   -7.1513    0.0464 H   0  0  0  0  0  0  0  0  0  0  0  0
   -1.3130   -6.6920    1.5641 H   0  0  0  0  0  0  0  0  0  0  0  0
   -0.2939   -4.6322    2.8575 H   0  0  0  0  0  0  0  0  0  0  0  0
    1.1050   -3.8288    2.1383 H   0  0  0  0  0  0  0  0  0  0  0  0
   -0.9858   -4.9708   -0.7999 H   0  0  0  0  0  0  0  0  0  0  0  0
   -1.5691   -4.2115    0.6780 H   0  0  0  0  0  0  0  0  0  0  0  0
    0.3370   -2.5192    0.4568 H   0  0  0  0  0  0  0  0  0  0  0  0
    0.8738   -3.3536   -0.9707 H   0  0  0  0  0  0  0  0  0  0  0  0
   -3.2728    0.6929    0.3264 H   0  0  0  0  0  0  0  0  0  0  0  0
   -4.5516   -0.4379   -0.1145 H   0  0  0  0  0  0  0  0  0  0  0  0
   -3.1110    0.9167   -3.9206 H   0  0  0  0  0  0  0  0  0  0  0  0
   -3.6767    2.1108   -1.5609 H   0  0  0  0  0  0  0  0  0  0  0  0
   -5.2509    1.7735   -0.8275 H   0  0  0  0  0  0  0  0  0  0  0  0
   -5.6594   -0.0195   -2.5190 H   0  0  0  0  0  0  0  0  0  0  0  0
   -5.3478    1.5286   -3.3156 H   0  0  0  0  0  0  0  0  0  0  0  0
    0.5815   -6.8393    6.2216 H   0  0  0  0  0  0  0  0  0  0  0  0
    0.9472   -2.6469   -3.3824 H   0  0  0  0  0  0  0  0  0  0  0  0
   -0.3709   -3.0085   -4.5072 H   0  0  0  0  0  0  0  0  0  0  0  0
   -0.0657   -4.0904   -3.1418 H   0  0  0  0  0  0  0  0  0  0  0  0
   -4.6852   -1.4270   -4.1119 H   0  0  0  0  0  0  0  0  0  0  0  0
    4.3339   -9.8715    7.0140 H   0  0  0  0  0  0  0  0  0  0  0  0
    1.2904   -7.3302    8.4966 H   0  0  0  0  0  0  0  0  0  0  0  0
    1.0877   -5.4138    0.3882 H   0  0  0  0  0  0  0  0  0  0  0  0
  1 31  1  0  0  0  0
  2  7  1  0  0  0  0
  2 26  1  0  0  0  0
 19  3  1  0  0  0  0
  4 24  2  0  0  0  0
  5 12  1  0  0  0  0
  5 13  1  0  0  0  0
  5 14  1  0  0  0  0
  6 18  1  0  0  0  0
  6 22  1  0  0  0  0
  6 24  1  0  0  0  0
  7 15  2  0  0  0  0
  8 22  2  0  0  0  0
  8 25  1  0  0  0  0
  9 10  1  0  0  0  0
  9 11  1  0  0  0  0
  9 15  1  0  0  0  0
 10 12  1  0  0  0  0
 11 13  1  0  0  0  0
 14 16  1  0  0  0  0
 15 23  1  0  0  0  0
 16 17  1  0  0  0  0
 17 24  1  0  0  0  0
 17 25  2  0  0  0  0
 18 20  1  0  0  0  0
 19 21  1  0  0  0  0
 19 22  1  0  0  0  0
 20 21  1  0  0  0  0
 23 26  1  0  0  0  0
 23 27  2  0  0  0  0
 25 28  1  0  0  0  0
 26 29  2  0  0  0  0
 27 30  1  0  0  0  0
 29 31  1  0  0  0  0
 30 31  2  0  0  0  0
  9 32  1  0  0  0  0
 10 33  1  0  0  0  0
 10 34  1  0  0  0  0
 11 35  1  0  0  0  0
 11 36  1  0  0  0  0
 12 37  1  0  0  0  0
 12 38  1  0  0  0  0
 13 39  1  0  0  0  0
 13 40  1  0  0  0  0
 14 41  1  0  0  0  0
 14 42  1  0  0  0  0
 16 43  1  0  0  0  0
 16 44  1  0  0  0  0
 18 45  1  0  0  0  0
 18 46  1  0  0  0  0
 19 47  1  0  0  0  0
 20 48  1  0  0  0  0
 20 49  1  0  0  0  0
 21 50  1  0  0  0  0
 21 51  1  0  0  0  0
 27 52  1  0  0  0  0
 28 53  1  0  0  0  0
 28 54  1  0  0  0  0
 28 55  1  0  0  0  0
  3 56  1  0  0  0  0
 29 57  1  0  0  0  0
 30 58  1  0  0  0  0
  5 59  1  0  0  0  0
M  CHG  1   5   1
M  END
$$$$
Pimozide
  Mrv2011 02102114123D          

 64 68  0  0  0  0            999 V2000
    1.7484    1.0492    8.1806 F   0  0  0  0  0  0  0  0  0  0  0  0
   -2.5632   -7.3725    6.0717 F   0  0  0  0  0  0  0  0  0  0  0  0
   -0.5521    6.2471    0.1442 O   0  0  0  0  0  0  0  0  0  0  0  0
   -1.4948    1.4662    0.9474 N   0  3  2  0  0  0  0  0  0  0  0  0
   -0.2265    4.7385   -1.6197 N   0  0  0  0  0  0  0  0  0  0  0  0
    0.5313    6.8244   -1.7603 N   0  0  0  0  0  0  0  0  0  0  0  0
   -0.8122    3.5044   -1.1326 C   0  0  2  0  0  0  0  0  0  0  0  0
   -2.0817    3.6204   -0.2344 C   0  0  2  0  0  0  0  0  0  0  0  0
    0.2777    2.6860   -0.3933 C   0  0  1  0  0  0  0  0  0  0  0  0
   -2.5754    2.2191    0.2243 C   0  0  2  0  0  0  0  0  0  0  0  0
   -0.2663    1.3243    0.0982 C   0  0  2  0  0  0  0  0  0  0  0  0
   -1.9828    0.1636    1.5195 C   0  0  1  0  0  0  0  0  0  0  0  0
   -0.9489   -0.5768    2.4178 C   0  0  1  0  0  0  0  0  0  0  0  0
    0.4231    4.8881   -2.8019 C   0  0  0  0  0  0  0  0  0  0  0  0
   -1.5281   -1.8062    3.1763 C   0  0  1  0  0  0  0  0  0  0  0  0
   -0.1292    5.9408   -0.9930 C   0  0  0  0  0  0  0  0  0  0  0  0
   -0.5234   -2.4328    4.2086 C   0  0  1  0  0  0  0  0  0  0  0  0
    0.8838    6.2014   -2.8861 C   0  0  0  0  0  0  0  0  0  0  0  0
    0.6960    3.9861   -3.8513 C   0  0  0  0  0  0  0  0  0  0  0  0
   -0.0026   -1.4961    5.2742 C   0  0  0  0  0  0  0  0  0  0  0  0
   -1.0577   -3.7302    4.7514 C   0  0  0  0  0  0  0  0  0  0  0  0
    1.5978    6.6757   -3.9980 C   0  0  0  0  0  0  0  0  0  0  0  0
    1.4244    4.4353   -4.9731 C   0  0  0  0  0  0  0  0  0  0  0  0
    1.8691    5.7736   -5.0482 C   0  0  0  0  0  0  0  0  0  0  0  0
    1.3589   -1.5657    5.6677 C   0  0  0  0  0  0  0  0  0  0  0  0
   -0.9039   -4.9148    3.9851 C   0  0  0  0  0  0  0  0  0  0  0  0
   -0.8411   -0.5392    5.9029 C   0  0  0  0  0  0  0  0  0  0  0  0
   -1.7435   -3.8370    5.9901 C   0  0  0  0  0  0  0  0  0  0  0  0
    1.9033   -0.6982    6.6321 C   0  0  0  0  0  0  0  0  0  0  0  0
   -1.4149   -6.1478    4.4296 C   0  0  0  0  0  0  0  0  0  0  0  0
   -0.2688    0.3472    6.8879 C   0  0  0  0  0  0  0  0  0  0  0  0
   -2.2529   -5.0701    6.4399 C   0  0  0  0  0  0  0  0  0  0  0  0
    1.1135    0.2769    7.2672 C   0  0  0  0  0  0  0  0  0  0  0  0
   -2.0901   -6.2281    5.6594 C   0  0  0  0  0  0  0  0  0  0  0  0
   -1.1310    2.9229   -2.0023 H   0  0  0  0  0  0  0  0  0  0  0  0
   -2.8772    4.1299   -0.7851 H   0  0  0  0  0  0  0  0  0  0  0  0
   -1.8641    4.2013    0.6635 H   0  0  0  0  0  0  0  0  0  0  0  0
    1.1245    2.5017   -1.0610 H   0  0  0  0  0  0  0  0  0  0  0  0
    0.6404    3.2546    0.4685 H   0  0  0  0  0  0  0  0  0  0  0  0
   -3.4328    2.3676    0.8864 H   0  0  0  0  0  0  0  0  0  0  0  0
   -2.9242    1.6498   -0.6445 H   0  0  0  0  0  0  0  0  0  0  0  0
   -0.4787    0.6816   -0.7628 H   0  0  0  0  0  0  0  0  0  0  0  0
    0.5448    0.8684    0.6686 H   0  0  0  0  0  0  0  0  0  0  0  0
   -2.8645    0.3652    2.1359 H   0  0  0  0  0  0  0  0  0  0  0  0
   -2.2881   -0.5063    0.7116 H   0  0  0  0  0  0  0  0  0  0  0  0
   -0.1282   -0.9505    1.8016 H   0  0  0  0  0  0  0  0  0  0  0  0
   -0.5344    0.1462    3.1239 H   0  0  0  0  0  0  0  0  0  0  0  0
   -2.4623   -1.5336    3.6713 H   0  0  0  0  0  0  0  0  0  0  0  0
   -1.7889   -2.5602    2.4257 H   0  0  0  0  0  0  0  0  0  0  0  0
    0.3459   -2.6892    3.5916 H   0  0  0  0  0  0  0  0  0  0  0  0
    0.7299    7.7482   -1.5341 H   0  0  0  0  0  0  0  0  0  0  0  0
    0.3824    3.0173   -3.8078 H   0  0  0  0  0  0  0  0  0  0  0  0
    1.9182    7.6455   -4.0432 H   0  0  0  0  0  0  0  0  0  0  0  0
    1.6338    3.7856   -5.7336 H   0  0  0  0  0  0  0  0  0  0  0  0
    2.3910    6.0908   -5.8684 H   0  0  0  0  0  0  0  0  0  0  0  0
    1.9800   -2.2612    5.2481 H   0  0  0  0  0  0  0  0  0  0  0  0
   -0.4201   -4.8892    3.0836 H   0  0  0  0  0  0  0  0  0  0  0  0
   -1.8701   -0.5441    5.5940 H   0  0  0  0  0  0  0  0  0  0  0  0
   -1.8865   -3.0206    6.5842 H   0  0  0  0  0  0  0  0  0  0  0  0
    2.8951   -0.7831    6.8733 H   0  0  0  0  0  0  0  0  0  0  0  0
   -1.2945   -6.9842    3.8538 H   0  0  0  0  0  0  0  0  0  0  0  0
   -0.8727    1.0426    7.3273 H   0  0  0  0  0  0  0  0  0  0  0  0
   -2.7437   -5.1212    7.3359 H   0  0  0  0  0  0  0  0  0  0  0  0
   -1.2328    2.0495    1.7468 H   0  0  0  0  0  0  0  0  0  0  0  0
  1 33  1  0  0  0  0
  2 34  1  0  0  0  0
  3 16  2  0  0  0  0
  4 10  1  0  0  0  0
  4 11  1  0  0  0  0
  4 12  1  0  0  0  0
  5  7  1  0  0  0  0
  5 14  1  0  0  0  0
  5 16  1  0  0  0  0
  6 16  1  0  0  0  0
  6 18  1  0  0  0  0
  7  8  1  0  0  0  0
  7  9  1  0  0  0  0
  8 10  1  0  0  0  0
  9 11  1  0  0  0  0
 12 13  1  0  0  0  0
 13 15  1  0  0  0  0
 14 18  2  0  0  0  0
 14 19  1  0  0  0  0
 15 17  1  0  0  0  0
 17 20  1  0  0  0  0
 17 21  1  0  0  0  0
 18 22  1  0  0  0  0
 19 23  2  0  0  0  0
 20 25  2  0  0  0  0
 20 27  1  0  0  0  0
 21 26  2  0  0  0  0
 21 28  1  0  0  0  0
 22 24  2  0  0  0  0
 23 24  1  0  0  0  0
 25 29  1  0  0  0  0
 26 30  1  0  0  0  0
 27 31  2  0  0  0  0
 28 32  2  0  0  0  0
 29 33  2  0  0  0  0
 30 34  2  0  0  0  0
 31 33  1  0  0  0  0
 32 34  1  0  0  0  0
  7 35  1  0  0  0  0
  8 36  1  0  0  0  0
  8 37  1  0  0  0  0
  9 38  1  0  0  0  0
  9 39  1  0  0  0  0
 10 40  1  0  0  0  0
 10 41  1  0  0  0  0
 11 42  1  0  0  0  0
 11 43  1  0  0  0  0
 12 44  1  0  0  0  0
 12 45  1  0  0  0  0
 13 46  1  0  0  0  0
 13 47  1  0  0  0  0
 15 48  1  0  0  0  0
 15 49  1  0  0  0  0
 17 50  1  0  0  0  0
  6 51  1  0  0  0  0
 19 52  1  0  0  0  0
 22 53  1  0  0  0  0
 23 54  1  0  0  0  0
 24 55  1  0  0  0  0
 25 56  1  0  0  0  0
 26 57  1  0  0  0  0
 27 58  1  0  0  0  0
 28 59  1  0  0  0  0
 29 60  1  0  0  0  0
 30 61  1  0  0  0  0
 31 62  1  0  0  0  0
 32 63  1  0  0  0  0
  4 64  1  0  0  0  0
M  CHG  1   4   1
M  END
$$$$
Procainamide
  Mrv2011 02102114133D          

 39 39  0  0  0  0            999 V2000
    0.5135    2.8619    0.3317 O   0  0  0  0  0  0  0  0  0  0  0  0
   -3.6022   -0.0880   -1.2687 N   0  3  1  0  0  0  0  0  0  0  0  0
   -0.3220    0.7677    0.4229 N   0  0  0  0  0  0  0  0  0  0  0  0
    4.1468    0.7953    5.0909 N   0  0  0  0  0  0  0  0  0  0  0  0
   -2.1973   -0.3063   -0.7738 C   0  0  1  0  0  0  0  0  0  0  0  0
   -3.6843    0.5536   -2.6320 C   0  0  1  0  0  0  0  0  0  0  0  0
   -4.4539   -1.3309   -1.1859 C   0  0  1  0  0  0  0  0  0  0  0  0
   -1.4031    0.9982   -0.4845 C   0  0  1  0  0  0  0  0  0  0  0  0
   -4.9150    1.4785   -2.7803 C   0  0  0  0  0  0  0  0  0  0  0  0
   -4.7699   -1.8273    0.2488 C   0  0  0  0  0  0  0  0  0  0  0  0
    0.5513    1.7235    0.8608 C   0  0  0  0  0  0  0  0  0  0  0  0
    1.4741    1.4659    1.9191 C   0  0  0  0  0  0  0  0  0  0  0  0
    2.5749    2.3300    2.1538 C   0  0  0  0  0  0  0  0  0  0  0  0
    1.3066    0.3634    2.7975 C   0  0  0  0  0  0  0  0  0  0  0  0
    3.4690    2.1055    3.2159 C   0  0  0  0  0  0  0  0  0  0  0  0
    2.2026    0.1332    3.8582 C   0  0  0  0  0  0  0  0  0  0  0  0
    3.2862    1.0050    4.0732 C   0  0  0  0  0  0  0  0  0  0  0  0
   -2.2358   -0.8499    0.1711 H   0  0  0  0  0  0  0  0  0  0  0  0
   -1.6352   -0.9261   -1.4792 H   0  0  0  0  0  0  0  0  0  0  0  0
   -2.8172    1.1844   -2.8361 H   0  0  0  0  0  0  0  0  0  0  0  0
   -3.7038   -0.2064   -3.4195 H   0  0  0  0  0  0  0  0  0  0  0  0
   -5.4242   -1.1418   -1.6504 H   0  0  0  0  0  0  0  0  0  0  0  0
   -3.9880   -2.1452   -1.7503 H   0  0  0  0  0  0  0  0  0  0  0  0
   -2.0775    1.7323   -0.0342 H   0  0  0  0  0  0  0  0  0  0  0  0
   -1.0037    1.4086   -1.4143 H   0  0  0  0  0  0  0  0  0  0  0  0
   -4.8551    2.2900   -2.0524 H   0  0  0  0  0  0  0  0  0  0  0  0
   -4.9397    1.9099   -3.7834 H   0  0  0  0  0  0  0  0  0  0  0  0
   -5.8467    0.9340   -2.6257 H   0  0  0  0  0  0  0  0  0  0  0  0
   -5.6044   -2.5317    0.2264 H   0  0  0  0  0  0  0  0  0  0  0  0
   -5.0415   -0.9860    0.8889 H   0  0  0  0  0  0  0  0  0  0  0  0
   -3.9144   -2.3487    0.6820 H   0  0  0  0  0  0  0  0  0  0  0  0
   -0.2245   -0.1288    0.7795 H   0  0  0  0  0  0  0  0  0  0  0  0
    2.7410    3.1404    1.5513 H   0  0  0  0  0  0  0  0  0  0  0  0
    0.5216   -0.2819    2.6867 H   0  0  0  0  0  0  0  0  0  0  0  0
    4.2523    2.7473    3.3601 H   0  0  0  0  0  0  0  0  0  0  0  0
    2.0574   -0.6724    4.4722 H   0  0  0  0  0  0  0  0  0  0  0  0
    4.8894    1.4044    5.2322 H   0  0  0  0  0  0  0  0  0  0  0  0
    4.0277    0.0364    5.6844 H   0  0  0  0  0  0  0  0  0  0  0  0
   -3.9894    0.5855   -0.6233 H   0  0  0  0  0  0  0  0  0  0  0  0
  1 11  2  0  0  0  0
  2  5  1  0  0  0  0
  2  6  1  0  0  0  0
  2  7  1  0  0  0  0
  3  8  1  0  0  0  0
  3 11  1  0  0  0  0
  4 17  1  0  0  0  0
  5  8  1  0  0  0  0
  6  9  1  0  0  0  0
  7 10  1  0  0  0  0
 11 12  1  0  0  0  0
 12 13  2  0  0  0  0
 12 14  1  0  0  0  0
 13 15  1  0  0  0  0
 14 16  2  0  0  0  0
 15 17  2  0  0  0  0
 16 17  1  0  0  0  0
  5 18  1  0  0  0  0
  5 19  1  0  0  0  0
  6 20  1  0  0  0  0
  6 21  1  0  0  0  0
  7 22  1  0  0  0  0
  7 23  1  0  0  0  0
  8 24  1  0  0  0  0
  8 25  1  0  0  0  0
  9 26  1  0  0  0  0
  9 27  1  0  0  0  0
  9 28  1  0  0  0  0
 10 29  1  0  0  0  0
 10 30  1  0  0  0  0
 10 31  1  0  0  0  0
  3 32  1  0  0  0  0
 13 33  1  0  0  0  0
 14 34  1  0  0  0  0
 15 35  1  0  0  0  0
 16 36  1  0  0  0  0
  4 37  1  0  0  0  0
  4 38  1  0  0  0  0
  2 39  1  0  0  0  0
M  CHG  1   2   1
M  END
$$$$
Quinidine_p
  Mrv2011 02102114143D          

 49 52  0  0  1  0            999 V2000
   -4.3659    1.0822    1.6764 O   0  0  0  0  0  0  0  0  0  0  0  0
    0.7811   -0.2333    4.3205 O   0  0  0  0  0  0  0  0  0  0  0  0
   -2.2921    3.4015   -0.5483 N   0  3  2  0  0  0  0  0  0  0  0  0
   -1.0819   -1.6321   -0.6971 N   0  0  0  0  0  0  0  0  0  0  0  0
   -3.4283    5.3871    0.7113 C   0  0  1  0  0  0  0  0  0  0  0  0
   -3.4747    2.8602    0.2346 C   0  0  2  0  0  0  0  0  0  0  0  0
   -4.1798    4.0474    0.9996 C   0  0  2  0  0  0  0  0  0  0  0  0
   -1.9248    5.2467    1.1628 C   0  0  2  0  0  0  0  0  0  0  0  0
   -3.4581    5.6250   -0.8329 C   0  0  1  0  0  0  0  0  0  0  0  0
   -1.2787    4.0536    0.3524 C   0  0  2  0  0  0  0  0  0  0  0  0
   -2.7678    4.4202   -1.5548 C   0  0  2  0  0  0  0  0  0  0  0  0
   -3.1509    1.6397    1.1744 C   0  0  2  0  0  0  0  0  0  0  0  0
   -1.7512    5.1436    2.6146 C   0  0  0  0  0  0  0  0  0  0  0  0
   -2.3786    0.4950    0.5772 C   0  0  0  0  0  0  0  0  0  0  0  0
   -2.1685    6.0800    3.4757 C   0  0  0  0  0  0  0  0  0  0  0  0
   -1.2649   -0.1540    1.2100 C   0  0  0  0  0  0  0  0  0  0  0  0
   -2.8218   -0.0092   -0.6738 C   0  0  0  0  0  0  0  0  0  0  0  0
   -0.6261   -1.2262    0.5128 C   0  0  0  0  0  0  0  0  0  0  0  0
   -0.7595    0.1593    2.5025 C   0  0  0  0  0  0  0  0  0  0  0  0
   -2.1502   -1.0684   -1.2984 C   0  0  0  0  0  0  0  0  0  0  0  0
    0.4713   -1.9161    1.0639 C   0  0  0  0  0  0  0  0  0  0  0  0
    0.3311   -0.5378    3.0625 C   0  0  0  0  0  0  0  0  0  0  0  0
    0.9402   -1.5784    2.3409 C   0  0  0  0  0  0  0  0  0  0  0  0
    1.8276    0.7543    4.3214 C   0  0  0  0  0  0  0  0  0  0  0  0
   -3.9301    6.2195    1.2154 H   0  0  0  0  0  0  0  0  0  0  0  0
   -4.2034    2.4955   -0.4967 H   0  0  0  0  0  0  0  0  0  0  0  0
   -5.2199    4.1392    0.6727 H   0  0  0  0  0  0  0  0  0  0  0  0
   -4.2066    3.8807    2.0795 H   0  0  0  0  0  0  0  0  0  0  0  0
   -1.4056    6.1665    0.8666 H   0  0  0  0  0  0  0  0  0  0  0  0
   -4.4929    5.7253   -1.1703 H   0  0  0  0  0  0  0  0  0  0  0  0
   -2.9413    6.5575   -1.0773 H   0  0  0  0  0  0  0  0  0  0  0  0
   -0.4524    4.4362   -0.2535 H   0  0  0  0  0  0  0  0  0  0  0  0
   -0.8309    3.2951    0.9967 H   0  0  0  0  0  0  0  0  0  0  0  0
   -3.4705    3.9608   -2.2570 H   0  0  0  0  0  0  0  0  0  0  0  0
   -1.9239    4.7790   -2.1533 H   0  0  0  0  0  0  0  0  0  0  0  0
   -2.6307    2.0547    2.0324 H   0  0  0  0  0  0  0  0  0  0  0  0
   -1.2893    4.3495    2.9971 H   0  0  0  0  0  0  0  0  0  0  0  0
   -4.8096    1.8144    2.1521 H   0  0  0  0  0  0  0  0  0  0  0  0
   -2.6369    6.8967    3.1627 H   0  0  0  0  0  0  0  0  0  0  0  0
   -2.0161    5.9610    4.4465 H   0  0  0  0  0  0  0  0  0  0  0  0
   -3.6397    0.3766   -1.1498 H   0  0  0  0  0  0  0  0  0  0  0  0
   -1.1758    0.8882    3.0782 H   0  0  0  0  0  0  0  0  0  0  0  0
   -2.4660   -1.4232   -2.2009 H   0  0  0  0  0  0  0  0  0  0  0  0
    0.9268   -2.6735    0.5466 H   0  0  0  0  0  0  0  0  0  0  0  0
    1.7240   -2.0913    2.7489 H   0  0  0  0  0  0  0  0  0  0  0  0
    2.1491    0.9072    5.3512 H   0  0  0  0  0  0  0  0  0  0  0  0
    2.6960    0.4267    3.7431 H   0  0  0  0  0  0  0  0  0  0  0  0
    1.4676    1.7093    3.9310 H   0  0  0  0  0  0  0  0  0  0  0  0
   -1.8420    2.6346   -1.0553 H   0  0  0  0  0  0  0  0  0  0  0  0
 12  1  1  0  0  0  0
  2 22  1  0  0  0  0
  2 24  1  0  0  0  0
  6  3  1  0  0  0  0
  3 10  1  0  0  0  0
  3 11  1  0  0  0  0
  4 18  1  0  0  0  0
  4 20  2  0  0  0  0
  5  7  1  0  0  0  0
  5  8  1  0  0  0  0
  5  9  1  0  0  0  0
  6  7  1  0  0  0  0
  6 12  1  0  0  0  0
  8 10  1  0  0  0  0
  8 13  1  0  0  0  0
  9 11  1  0  0  0  0
 12 14  1  0  0  0  0
 13 15  2  0  0  0  0
 14 16  1  0  0  0  0
 14 17  2  0  0  0  0
 16 18  1  0  0  0  0
 16 19  2  0  0  0  0
 17 20  1  0  0  0  0
 18 21  2  0  0  0  0
 19 22  1  0  0  0  0
 21 23  1  0  0  0  0
 22 23  2  0  0  0  0
  5 25  1  0  0  0  0
  6 26  1  0  0  0  0
  7 27  1  0  0  0  0
  7 28  1  0  0  0  0
  8 29  1  0  0  0  0
  9 30  1  0  0  0  0
  9 31  1  0  0  0  0
 10 32  1  0  0  0  0
 10 33  1  0  0  0  0
 11 34  1  0  0  0  0
 11 35  1  0  0  0  0
 12 36  1  0  0  0  0
 13 37  1  0  0  0  0
  1 38  1  0  0  0  0
 15 39  1  0  0  0  0
 15 40  1  0  0  0  0
 17 41  1  0  0  0  0
 19 42  1  0  0  0  0
 20 43  1  0  0  0  0
 21 44  1  0  0  0  0
 23 45  1  0  0  0  0
 24 46  1  0  0  0  0
 24 47  1  0  0  0  0
 24 48  1  0  0  0  0
  3 49  1  0  0  0  0
M  CHG  1   3   1
M  END
$$$$
Risperidone
  Mrv2011 02102114153D          

 58 62  0  0  0  0            999 V2000
   -5.8764    6.7426   -9.2227 F   0  0  0  0  0  0  0  0  0  0  0  0
   -2.0447    3.8874   -8.4734 O   0  0  0  0  0  0  0  0  0  0  0  0
    2.5706    1.3553    0.5957 O   0  0  0  0  0  0  0  0  0  0  0  0
    0.3029    3.8009   -2.6724 N   0  3  2  0  0  0  0  0  0  0  0  0
    2.7586    2.2771    2.6686 N   0  0  0  0  0  0  0  0  0  0  0  0
   -1.2567    3.8114   -7.4292 N   0  0  0  0  0  0  0  0  0  0  0  0
    1.2607    4.0156    3.2380 N   0  0  0  0  0  0  0  0  0  0  0  0
   -1.0091    4.8631   -5.1396 C   0  0  2  0  0  0  0  0  0  0  0  0
    0.5018    4.4968   -5.1088 C   0  0  2  0  0  0  0  0  0  0  0  0
   -1.7904    4.0255   -4.0890 C   0  0  2  0  0  0  0  0  0  0  0  0
    1.0741    4.6162   -3.6723 C   0  0  2  0  0  0  0  0  0  0  0  0
   -1.1546    4.1655   -2.6830 C   0  0  2  0  0  0  0  0  0  0  0  0
    0.9480    3.8509   -1.3125 C   0  0  1  0  0  0  0  0  0  0  0  0
   -1.6252    4.6984   -6.4801 C   0  0  0  0  0  0  0  0  0  0  0  0
    0.3650    2.8756   -0.2460 C   0  0  1  0  0  0  0  0  0  0  0  0
    1.0391    3.0032    1.0848 C   0  0  0  0  0  0  0  0  0  0  0  0
   -2.7230    5.3873   -6.9809 C   0  0  0  0  0  0  0  0  0  0  0  0
    3.8881    1.4105    2.9899 C   0  0  1  0  0  0  0  0  0  0  0  0
    4.3103    1.3678    4.4836 C   0  0  1  0  0  0  0  0  0  0  0  0
    2.3098    3.2214    3.5623 C   0  0  0  0  0  0  0  0  0  0  0  0
    4.3050    2.7965    5.0660 C   0  0  1  0  0  0  0  0  0  0  0  0
    2.9052    3.4382    4.9062 C   0  0  2  0  0  0  0  0  0  0  0  0
    2.1449    2.1830    1.4385 C   0  0  0  0  0  0  0  0  0  0  0  0
    0.6098    3.9515    2.0516 C   0  0  0  0  0  0  0  0  0  0  0  0
   -2.9686    4.8400   -8.2320 C   0  0  0  0  0  0  0  0  0  0  0  0
   -3.5266    6.4199   -6.4617 C   0  0  0  0  0  0  0  0  0  0  0  0
   -0.5347    4.8797    1.8695 C   0  0  0  0  0  0  0  0  0  0  0  0
   -4.0441    5.2818   -9.0183 C   0  0  0  0  0  0  0  0  0  0  0  0
   -4.6034    6.8849   -7.2467 C   0  0  0  0  0  0  0  0  0  0  0  0
   -4.8664    6.3157   -8.5152 C   0  0  0  0  0  0  0  0  0  0  0  0
   -1.0920    5.9204   -4.8624 H   0  0  0  0  0  0  0  0  0  0  0  0
    1.0500    5.1695   -5.7734 H   0  0  0  0  0  0  0  0  0  0  0  0
    0.6517    3.4748   -5.4655 H   0  0  0  0  0  0  0  0  0  0  0  0
   -1.7903    2.9688   -4.3762 H   0  0  0  0  0  0  0  0  0  0  0  0
   -2.8325    4.3597   -4.0415 H   0  0  0  0  0  0  0  0  0  0  0  0
    2.1140    4.2817   -3.7032 H   0  0  0  0  0  0  0  0  0  0  0  0
    1.0757    5.6719   -3.3801 H   0  0  0  0  0  0  0  0  0  0  0  0
   -1.2888    5.1927   -2.3275 H   0  0  0  0  0  0  0  0  0  0  0  0
   -1.7223    3.5070   -2.0254 H   0  0  0  0  0  0  0  0  0  0  0  0
    2.0051    3.5873   -1.4214 H   0  0  0  0  0  0  0  0  0  0  0  0
    0.9116    4.8757   -0.9351 H   0  0  0  0  0  0  0  0  0  0  0  0
   -0.7010    3.0430   -0.1040 H   0  0  0  0  0  0  0  0  0  0  0  0
    0.4511    1.8539   -0.6231 H   0  0  0  0  0  0  0  0  0  0  0  0
    3.6768    0.3783    2.6969 H   0  0  0  0  0  0  0  0  0  0  0  0
    4.7447    1.7450    2.3982 H   0  0  0  0  0  0  0  0  0  0  0  0
    3.6079    0.7480    5.0477 H   0  0  0  0  0  0  0  0  0  0  0  0
    5.3053    0.9218    4.5877 H   0  0  0  0  0  0  0  0  0  0  0  0
    4.5780    2.7680    6.1246 H   0  0  0  0  0  0  0  0  0  0  0  0
    5.0519    3.4034    4.5444 H   0  0  0  0  0  0  0  0  0  0  0  0
    2.2286    3.0175    5.6546 H   0  0  0  0  0  0  0  0  0  0  0  0
    2.9928    4.5108    5.1018 H   0  0  0  0  0  0  0  0  0  0  0  0
   -3.3393    6.8262   -5.5405 H   0  0  0  0  0  0  0  0  0  0  0  0
   -1.4673    4.3165    1.9354 H   0  0  0  0  0  0  0  0  0  0  0  0
   -0.4930    5.3802    0.9004 H   0  0  0  0  0  0  0  0  0  0  0  0
   -0.5471    5.6535    2.6418 H   0  0  0  0  0  0  0  0  0  0  0  0
   -4.2232    4.8599   -9.9313 H   0  0  0  0  0  0  0  0  0  0  0  0
   -5.1953    7.6384   -6.8888 H   0  0  0  0  0  0  0  0  0  0  0  0
    0.3644    2.8304   -2.9878 H   0  0  0  0  0  0  0  0  0  0  0  0
  1 30  1  0  0  0  0
  2  6  1  0  0  0  0
  2 25  1  0  0  0  0
  3 23  2  0  0  0  0
  4 11  1  0  0  0  0
  4 12  1  0  0  0  0
  4 13  1  0  0  0  0
  5 18  1  0  0  0  0
  5 20  1  0  0  0  0
  5 23  1  0  0  0  0
  6 14  2  0  0  0  0
  7 20  2  0  0  0  0
  7 24  1  0  0  0  0
  8  9  1  0  0  0  0
  8 10  1  0  0  0  0
  8 14  1  0  0  0  0
  9 11  1  0  0  0  0
 10 12  1  0  0  0  0
 13 15  1  0  0  0  0
 14 17  1  0  0  0  0
 15 16  1  0  0  0  0
 16 23  1  0  0  0  0
 16 24  2  0  0  0  0
 17 25  1  0  0  0  0
 17 26  2  0  0  0  0
 18 19  1  0  0  0  0
 19 21  1  0  0  0  0
 20 22  1  0  0  0  0
 21 22  1  0  0  0  0
 24 27  1  0  0  0  0
 25 28  2  0  0  0  0
 26 29  1  0  0  0  0
 28 30  1  0  0  0  0
 29 30  2  0  0  0  0
  8 31  1  0  0  0  0
  9 32  1  0  0  0  0
  9 33  1  0  0  0  0
 10 34  1  0  0  0  0
 10 35  1  0  0  0  0
 11 36  1  0  0  0  0
 11 37  1  0  0  0  0
 12 38  1  0  0  0  0
 12 39  1  0  0  0  0
 13 40  1  0  0  0  0
 13 41  1  0  0  0  0
 15 42  1  0  0  0  0
 15 43  1  0  0  0  0
 18 44  1  0  0  0  0
 18 45  1  0  0  0  0
 19 46  1  0  0  0  0
 19 47  1  0  0  0  0
 21 48  1  0  0  0  0
 21 49  1  0  0  0  0
 22 50  1  0  0  0  0
 22 51  1  0  0  0  0
 26 52  1  0  0  0  0
 27 53  1  0  0  0  0
 27 54  1  0  0  0  0
 27 55  1  0  0  0  0
 28 56  1  0  0  0  0
 29 57  1  0  0  0  0
  4 58  1  0  0  0  0
M  CHG  1   4   1
M  END
$$$$
Sertindole_p
  Mrv2011 02102114163D          

 58 62  0  0  0  0            999 V2000
   -2.1233   -8.2496   -5.5277 Cl  0  0  0  0  0  0  0  0  0  0  0  0
    6.9965   -4.5708   -9.4336 F   0  0  0  0  0  0  0  0  0  0  0  0
    1.8667   -1.7280    2.0632 O   0  0  0  0  0  0  0  0  0  0  0  0
   -0.2178   -1.0830   -1.8386 N   0  3  2  0  0  0  0  0  0  0  0  0
    2.3253   -4.6045   -6.5187 N   0  0  0  0  0  0  0  0  0  0  0  0
    1.2124    0.0313    0.6813 N   0  0  0  0  0  0  0  0  0  0  0  0
    3.3008   -0.1037    1.3977 N   0  0  0  0  0  0  0  0  0  0  0  0
   -0.0047   -3.0460   -4.0804 C   0  0  2  0  0  0  0  0  0  0  0  0
    0.0995   -1.5089   -4.3111 C   0  0  2  0  0  0  0  0  0  0  0  0
    0.4189   -3.3978   -2.6239 C   0  0  2  0  0  0  0  0  0  0  0  0
   -0.6785   -0.7251   -3.2236 C   0  0  2  0  0  0  0  0  0  0  0  0
   -0.3665   -2.5549   -1.5820 C   0  0  2  0  0  0  0  0  0  0  0  0
    0.7362   -3.8779   -5.0759 C   0  0  0  0  0  0  0  0  0  0  0  0
   -0.8456   -0.1953   -0.8001 C   0  0  1  0  0  0  0  0  0  0  0  0
    0.3957   -5.1554   -5.5294 C   0  0  0  0  0  0  0  0  0  0  0  0
   -0.2062   -0.2288    0.6155 C   0  0  2  0  0  0  0  0  0  0  0  0
    1.9363   -3.5759   -5.7295 C   0  0  0  0  0  0  0  0  0  0  0  0
    1.3958   -5.5808   -6.4092 C   0  0  0  0  0  0  0  0  0  0  0  0
    1.8693    1.1516    0.0835 C   0  0  2  0  0  0  0  0  0  0  0  0
   -0.7126   -5.9769   -5.2377 C   0  0  0  0  0  0  0  0  0  0  0  0
    3.3093    1.0884    0.6442 C   0  0  2  0  0  0  0  0  0  0  0  0
    1.3152   -6.8472   -7.0239 C   0  0  0  0  0  0  0  0  0  0  0  0
    3.4713   -4.6194   -7.2694 C   0  0  0  0  0  0  0  0  0  0  0  0
    2.0998   -0.6847    1.4109 C   0  0  0  0  0  0  0  0  0  0  0  0
   -0.7995   -7.2457   -5.8514 C   0  0  0  0  0  0  0  0  0  0  0  0
    0.2133   -7.6785   -6.7368 C   0  0  0  0  0  0  0  0  0  0  0  0
    3.7125   -3.6123   -8.2333 C   0  0  0  0  0  0  0  0  0  0  0  0
    4.4475   -5.6251   -7.0815 C   0  0  0  0  0  0  0  0  0  0  0  0
    4.9070   -3.6016   -8.9785 C   0  0  0  0  0  0  0  0  0  0  0  0
    5.6431   -5.6146   -7.8233 C   0  0  0  0  0  0  0  0  0  0  0  0
    5.8787   -4.5962   -8.7640 C   0  0  0  0  0  0  0  0  0  0  0  0
   -1.0647   -3.2966   -4.1839 H   0  0  0  0  0  0  0  0  0  0  0  0
   -0.3097   -1.2566   -5.2939 H   0  0  0  0  0  0  0  0  0  0  0  0
    1.1438   -1.1857   -4.2799 H   0  0  0  0  0  0  0  0  0  0  0  0
    1.4903   -3.2192   -2.4933 H   0  0  0  0  0  0  0  0  0  0  0  0
    0.2308   -4.4567   -2.4318 H   0  0  0  0  0  0  0  0  0  0  0  0
   -0.5162    0.3396   -3.4138 H   0  0  0  0  0  0  0  0  0  0  0  0
   -1.7512   -0.9207   -3.3323 H   0  0  0  0  0  0  0  0  0  0  0  0
   -1.4225   -2.8451   -1.6080 H   0  0  0  0  0  0  0  0  0  0  0  0
    0.0199   -2.8121   -0.5942 H   0  0  0  0  0  0  0  0  0  0  0  0
   -0.7945    0.8465   -1.1323 H   0  0  0  0  0  0  0  0  0  0  0  0
   -1.9062   -0.4426   -0.6977 H   0  0  0  0  0  0  0  0  0  0  0  0
   -0.6966    0.5389    1.2222 H   0  0  0  0  0  0  0  0  0  0  0  0
   -0.4528   -1.1850    1.0844 H   0  0  0  0  0  0  0  0  0  0  0  0
    2.4586   -2.7027   -5.6184 H   0  0  0  0  0  0  0  0  0  0  0  0
    1.3794    2.0864    0.3693 H   0  0  0  0  0  0  0  0  0  0  0  0
    1.8763    1.0641   -1.0068 H   0  0  0  0  0  0  0  0  0  0  0  0
   -1.4442   -5.6585   -4.5973 H   0  0  0  0  0  0  0  0  0  0  0  0
    4.0544    1.0299   -0.1530 H   0  0  0  0  0  0  0  0  0  0  0  0
    3.5206    1.9408    1.2949 H   0  0  0  0  0  0  0  0  0  0  0  0
    2.0391   -7.1624   -7.6702 H   0  0  0  0  0  0  0  0  0  0  0  0
    4.0765   -0.4533    1.8681 H   0  0  0  0  0  0  0  0  0  0  0  0
    0.1533   -8.5981   -7.1776 H   0  0  0  0  0  0  0  0  0  0  0  0
    3.0156   -2.8822   -8.3992 H   0  0  0  0  0  0  0  0  0  0  0  0
    4.2961   -6.3652   -6.3920 H   0  0  0  0  0  0  0  0  0  0  0  0
    5.0653   -2.8672   -9.6721 H   0  0  0  0  0  0  0  0  0  0  0  0
    6.3410   -6.3459   -7.6715 H   0  0  0  0  0  0  0  0  0  0  0  0
    0.7865   -0.8885   -1.8118 H   0  0  0  0  0  0  0  0  0  0  0  0
  1 25  1  0  0  0  0
  2 31  1  0  0  0  0
  3 24  2  0  0  0  0
  4 11  1  0  0  0  0
  4 12  1  0  0  0  0
  4 14  1  0  0  0  0
  5 17  1  0  0  0  0
  5 18  1  0  0  0  0
  5 23  1  0  0  0  0
  6 16  1  0  0  0  0
  6 19  1  0  0  0  0
  6 24  1  0  0  0  0
  7 21  1  0  0  0  0
  7 24  1  0  0  0  0
  8  9  1  0  0  0  0
  8 10  1  0  0  0  0
  8 13  1  0  0  0  0
  9 11  1  0  0  0  0
 10 12  1  0  0  0  0
 13 15  1  0  0  0  0
 13 17  2  0  0  0  0
 14 16  1  0  0  0  0
 15 18  1  0  0  0  0
 15 20  2  0  0  0  0
 18 22  2  0  0  0  0
 19 21  1  0  0  0  0
 20 25  1  0  0  0  0
 22 26  1  0  0  0  0
 23 27  2  0  0  0  0
 23 28  1  0  0  0  0
 25 26  2  0  0  0  0
 27 29  1  0  0  0  0
 28 30  2  0  0  0  0
 29 31  2  0  0  0  0
 30 31  1  0  0  0  0
  8 32  1  0  0  0  0
  9 33  1  0  0  0  0
  9 34  1  0  0  0  0
 10 35  1  0  0  0  0
 10 36  1  0  0  0  0
 11 37  1  0  0  0  0
 11 38  1  0  0  0  0
 12 39  1  0  0  0  0
 12 40  1  0  0  0  0
 14 41  1  0  0  0  0
 14 42  1  0  0  0  0
 16 43  1  0  0  0  0
 16 44  1  0  0  0  0
 17 45  1  0  0  0  0
 19 46  1  0  0  0  0
 19 47  1  0  0  0  0
 20 48  1  0  0  0  0
 21 49  1  0  0  0  0
 21 50  1  0  0  0  0
 22 51  1  0  0  0  0
  7 52  1  0  0  0  0
 26 53  1  0  0  0  0
 27 54  1  0  0  0  0
 28 55  1  0  0  0  0
 29 56  1  0  0  0  0
 30 57  1  0  0  0  0
  4 58  1  0  0  0  0
M  CHG  1   4   1
M  END
$$$$
Solifenacin_p
  Mrv2011 02102114173D          

 54 58  0  0  1  0            999 V2000
   -0.6674   -0.1778   -1.9353 O   0  0  0  0  0  0  0  0  0  0  0  0
   -2.6428   -0.7526   -2.8071 O   0  0  0  0  0  0  0  0  0  0  0  0
    2.6201    0.3300   -3.2333 N   0  3  1  0  0  0  0  0  0  0  0  0
   -2.3694   -1.0817   -0.5207 N   0  0  0  0  0  0  0  0  0  0  0  0
    1.0227   -1.6903   -2.8063 C   0  0  2  0  0  0  0  0  0  0  0  0
    0.1993   -0.3787   -3.0643 C   0  0  2  0  0  0  0  0  0  0  0  0
    1.9663   -1.4572   -1.5775 C   0  0  2  0  0  0  0  0  0  0  0  0
    1.9271   -1.9601   -4.0510 C   0  0  2  0  0  0  0  0  0  0  0  0
    1.1965    0.8183   -3.2470 C   0  0  2  0  0  0  0  0  0  0  0  0
    2.9375   -0.2692   -1.8908 C   0  0  2  0  0  0  0  0  0  0  0  0
    2.8203   -0.7004   -4.3139 C   0  0  1  0  0  0  0  0  0  0  0  0
   -1.9331   -0.6703   -1.7763 C   0  0  0  0  0  0  0  0  0  0  0  0
   -3.5514   -1.9316   -0.2666 C   0  0  2  0  0  0  0  0  0  0  0  0
   -1.5924   -0.7172    0.6485 C   0  0  1  0  0  0  0  0  0  0  0  0
   -3.3334   -2.9322    0.8480 C   0  0  0  0  0  0  0  0  0  0  0  0
   -1.0235   -2.0008    1.2921 C   0  0  1  0  0  0  0  0  0  0  0  0
   -2.0917   -2.9971    1.5430 C   0  0  0  0  0  0  0  0  0  0  0  0
   -4.0489   -2.6887   -1.4717 C   0  0  0  0  0  0  0  0  0  0  0  0
   -4.3540   -3.8453    1.2202 C   0  0  0  0  0  0  0  0  0  0  0  0
   -1.8589   -4.0203    2.4888 C   0  0  0  0  0  0  0  0  0  0  0  0
   -5.3579   -2.5001   -1.9827 C   0  0  0  0  0  0  0  0  0  0  0  0
   -3.1964   -3.6044   -2.1388 C   0  0  0  0  0  0  0  0  0  0  0  0
   -4.1157   -4.8551    2.1679 C   0  0  0  0  0  0  0  0  0  0  0  0
   -2.8631   -4.9529    2.7913 C   0  0  0  0  0  0  0  0  0  0  0  0
   -5.7820   -3.1707   -3.1469 C   0  0  0  0  0  0  0  0  0  0  0  0
   -3.6186   -4.2701   -3.3032 C   0  0  0  0  0  0  0  0  0  0  0  0
   -4.9071   -4.0437   -3.8156 C   0  0  0  0  0  0  0  0  0  0  0  0
    0.3573   -2.5399   -2.6277 H   0  0  0  0  0  0  0  0  0  0  0  0
   -0.3925   -0.4904   -3.9795 H   0  0  0  0  0  0  0  0  0  0  0  0
    2.5364   -2.3650   -1.3616 H   0  0  0  0  0  0  0  0  0  0  0  0
    1.3765   -1.2238   -0.6885 H   0  0  0  0  0  0  0  0  0  0  0  0
    1.3076   -2.1814   -4.9245 H   0  0  0  0  0  0  0  0  0  0  0  0
    2.5583   -2.8351   -3.8665 H   0  0  0  0  0  0  0  0  0  0  0  0
    0.9964    1.3292   -4.1929 H   0  0  0  0  0  0  0  0  0  0  0  0
    1.0502    1.5603   -2.4564 H   0  0  0  0  0  0  0  0  0  0  0  0
    2.8562    0.4972   -1.1148 H   0  0  0  0  0  0  0  0  0  0  0  0
    3.9735   -0.6208   -1.8784 H   0  0  0  0  0  0  0  0  0  0  0  0
    2.5699   -0.2685   -5.2873 H   0  0  0  0  0  0  0  0  0  0  0  0
    3.8735   -0.9915   -4.3598 H   0  0  0  0  0  0  0  0  0  0  0  0
   -4.3341   -1.2502    0.0837 H   0  0  0  0  0  0  0  0  0  0  0  0
   -0.7641   -0.0316    0.4526 H   0  0  0  0  0  0  0  0  0  0  0  0
   -2.2402   -0.2033    1.3650 H   0  0  0  0  0  0  0  0  0  0  0  0
   -0.2752   -2.4515    0.6367 H   0  0  0  0  0  0  0  0  0  0  0  0
   -0.5346   -1.7218    2.2298 H   0  0  0  0  0  0  0  0  0  0  0  0
   -5.2764   -3.7947    0.7839 H   0  0  0  0  0  0  0  0  0  0  0  0
   -0.9578   -4.0907    2.9676 H   0  0  0  0  0  0  0  0  0  0  0  0
   -6.0132   -1.8697   -1.5143 H   0  0  0  0  0  0  0  0  0  0  0  0
   -2.2515   -3.7752   -1.7867 H   0  0  0  0  0  0  0  0  0  0  0  0
   -4.8506   -5.5260    2.3976 H   0  0  0  0  0  0  0  0  0  0  0  0
   -2.6817   -5.6967    3.4680 H   0  0  0  0  0  0  0  0  0  0  0  0
   -6.7258   -3.0218   -3.5113 H   0  0  0  0  0  0  0  0  0  0  0  0
   -2.9858   -4.9152   -3.7800 H   0  0  0  0  0  0  0  0  0  0  0  0
   -5.2053   -4.5137   -4.6729 H   0  0  0  0  0  0  0  0  0  0  0  0
    3.2462    1.1199   -3.4046 H   0  0  0  0  0  0  0  0  0  0  0  0
  6  1  1  0  0  0  0
  1 12  1  0  0  0  0
  2 12  2  0  0  0  0
  3  9  1  0  0  0  0
  3 10  1  0  0  0  0
  3 11  1  0  0  0  0
  4 12  1  0  0  0  0
 13  4  1  0  0  0  0
  4 14  1  0  0  0  0
  6  5  1  0  0  0  0
  5  7  1  0  0  0  0
  5  8  1  0  0  0  0
  6  9  1  0  0  0  0
  7 10  1  0  0  0  0
  8 11  1  0  0  0  0
 13 15  1  0  0  0  0
 13 18  1  0  0  0  0
 14 16  1  0  0  0  0
 15 17  2  0  0  0  0
 15 19  1  0  0  0  0
 16 17  1  0  0  0  0
 17 20  1  0  0  0  0
 18 21  2  0  0  0  0
 18 22  1  0  0  0  0
 19 23  2  0  0  0  0
 20 24  2  0  0  0  0
 21 25  1  0  0  0  0
 22 26  2  0  0  0  0
 23 24  1  0  0  0  0
 25 27  2  0  0  0  0
 26 27  1  0  0  0  0
  5 28  1  0  0  0  0
  6 29  1  0  0  0  0
  7 30  1  0  0  0  0
  7 31  1  0  0  0  0
  8 32  1  0  0  0  0
  8 33  1  0  0  0  0
  9 34  1  0  0  0  0
  9 35  1  0  0  0  0
 10 36  1  0  0  0  0
 10 37  1  0  0  0  0
 11 38  1  0  0  0  0
 11 39  1  0  0  0  0
 13 40  1  0  0  0  0
 14 41  1  0  0  0  0
 14 42  1  0  0  0  0
 16 43  1  0  0  0  0
 16 44  1  0  0  0  0
 19 45  1  0  0  0  0
 20 46  1  0  0  0  0
 21 47  1  0  0  0  0
 22 48  1  0  0  0  0
 23 49  1  0  0  0  0
 24 50  1  0  0  0  0
 25 51  1  0  0  0  0
 26 52  1  0  0  0  0
 27 53  1  0  0  0  0
  3 54  1  0  0  0  0
M  CHG  1   3   1
M  END
$$$$
Sotalol_p
  Mrv2011 02102114183D          

 39 39  0  0  1  0            999 V2000
    0.5723    0.2516   -0.6666 S   0  0  1  0  0  0  0  0  0  0  0  0
   -6.7295    0.8964   -1.8299 O   0  0  0  0  0  0  0  0  0  0  0  0
   -0.0523   -1.1493   -1.1347 O   0  0  0  0  0  0  0  0  0  0  0  0
    1.0353    1.0809   -1.9577 O   0  0  0  0  0  0  0  0  0  0  0  0
   -7.8717   -1.2443   -0.3251 N   0  3  1  0  0  0  0  0  0  0  0  0
   -0.6074    1.1522    0.1990 N   0  0  0  0  0  0  0  0  0  0  0  0
   -6.2263    0.6625   -0.5112 C   0  0  1  0  0  0  0  0  0  0  0  0
   -6.4715   -0.8156   -0.0938 C   0  0  2  0  0  0  0  0  0  0  0  0
   -8.2423   -2.6251    0.1000 C   0  0  2  0  0  0  0  0  0  0  0  0
   -4.7675    0.9627   -0.4075 C   0  0  0  0  0  0  0  0  0  0  0  0
   -3.8910    0.7226   -1.4916 C   0  0  0  0  0  0  0  0  0  0  0  0
   -4.2122    1.4029    0.8169 C   0  0  0  0  0  0  0  0  0  0  0  0
   -7.4950   -3.7223   -0.7020 C   0  0  0  0  0  0  0  0  0  0  0  0
   -9.7754   -2.7970   -0.0482 C   0  0  0  0  0  0  0  0  0  0  0  0
   -1.9431    1.1680   -0.0728 C   0  0  0  0  0  0  0  0  0  0  0  0
   -2.4978    0.8258   -1.3290 C   0  0  0  0  0  0  0  0  0  0  0  0
   -2.8187    1.5173    0.9762 C   0  0  0  0  0  0  0  0  0  0  0  0
    2.0170   -0.0705    0.4099 C   0  0  0  0  0  0  0  0  0  0  0  0
   -6.7940    1.3153    0.1595 H   0  0  0  0  0  0  0  0  0  0  0  0
   -5.8015   -1.4569   -0.6711 H   0  0  0  0  0  0  0  0  0  0  0  0
   -6.2322   -0.9300    0.9671 H   0  0  0  0  0  0  0  0  0  0  0  0
   -8.0020   -2.7514    1.1605 H   0  0  0  0  0  0  0  0  0  0  0  0
   -8.4825   -0.5915    0.1703 H   0  0  0  0  0  0  0  0  0  0  0  0
   -4.2589    0.4450   -2.4039 H   0  0  0  0  0  0  0  0  0  0  0  0
   -4.8181    1.6166    1.6142 H   0  0  0  0  0  0  0  0  0  0  0  0
   -7.6004   -3.5486   -1.7744 H   0  0  0  0  0  0  0  0  0  0  0  0
   -6.4349   -3.7259   -0.4466 H   0  0  0  0  0  0  0  0  0  0  0  0
   -7.8926   -4.7105   -0.4638 H   0  0  0  0  0  0  0  0  0  0  0  0
  -10.2988   -2.0527    0.5533 H   0  0  0  0  0  0  0  0  0  0  0  0
  -10.0762   -2.6800   -1.0906 H   0  0  0  0  0  0  0  0  0  0  0  0
  -10.0836   -3.7868    0.2948 H   0  0  0  0  0  0  0  0  0  0  0  0
   -1.8986    0.6326   -2.1343 H   0  0  0  0  0  0  0  0  0  0  0  0
   -2.4477    1.8295    1.8768 H   0  0  0  0  0  0  0  0  0  0  0  0
   -6.6064    1.8560   -1.9913 H   0  0  0  0  0  0  0  0  0  0  0  0
   -0.3005    1.6386    0.9815 H   0  0  0  0  0  0  0  0  0  0  0  0
    1.6903   -0.5772    1.3183 H   0  0  0  0  0  0  0  0  0  0  0  0
    2.7373   -0.7010   -0.1126 H   0  0  0  0  0  0  0  0  0  0  0  0
    2.4893    0.8747    0.6741 H   0  0  0  0  0  0  0  0  0  0  0  0
   -8.0702   -1.1542   -1.3236 H   0  0  0  0  0  0  0  0  0  0  0  0
  1  3  2  0  0  0  0
  1  4  2  0  0  0  0
  1  6  1  0  0  0  0
  1 18  1  0  0  0  0
  7  2  1  0  0  0  0
  5  8  1  0  0  0  0
  5  9  1  0  0  0  0
  6 15  1  0  0  0  0
  7  8  1  0  0  0  0
  7 10  1  0  0  0  0
  9 13  1  0  0  0  0
  9 14  1  0  0  0  0
 10 11  2  0  0  0  0
 10 12  1  0  0  0  0
 11 16  1  0  0  0  0
 12 17  2  0  0  0  0
 15 16  2  0  0  0  0
 15 17  1  0  0  0  0
  7 19  1  0  0  0  0
  8 20  1  0  0  0  0
  8 21  1  0  0  0  0
  9 22  1  0  0  0  0
  5 23  1  0  0  0  0
 11 24  1  0  0  0  0
 12 25  1  0  0  0  0
 13 26  1  0  0  0  0
 13 27  1  0  0  0  0
 13 28  1  0  0  0  0
 14 29  1  0  0  0  0
 14 30  1  0  0  0  0
 14 31  1  0  0  0  0
 16 32  1  0  0  0  0
 17 33  1  0  0  0  0
  2 34  1  0  0  0  0
  6 35  1  0  0  0  0
 18 36  1  0  0  0  0
 18 37  1  0  0  0  0
 18 38  1  0  0  0  0
  5 39  1  0  0  0  0
M  CHG  1   5   1
M  END
$$$$
Sparfloxacin_p
  Mrv2011 02102114193D          

 50 53  0  0  1  0            999 V2000
    2.4683    3.3632   -1.3295 F   0  0  0  0  0  0  0  0  0  0  0  0
    3.8087    3.1202    3.2061 F   0  0  0  0  0  0  0  0  0  0  0  0
    5.9318    7.2556    1.3723 O   0  0  0  0  0  0  0  0  0  0  0  0
    6.8874    9.1534   -0.1643 O   0  5  0  0  0  0  0  0  0  0  0  0
    5.8457    9.3338   -2.0829 O   0  0  0  0  0  0  0  0  0  0  0  0
    3.4689    5.9410   -1.5298 N   0  0  0  0  0  0  0  0  0  0  0  0
    2.2648    1.8207    1.0976 N   0  0  0  0  0  0  0  0  0  0  0  0
    1.4830   -0.9599    1.0803 N   0  3  1  0  0  0  0  0  0  0  0  0
    5.2948    5.1880    2.9246 N   0  0  0  0  0  0  0  0  0  0  0  0
    2.5117    5.7074   -2.5998 C   0  0  1  0  0  0  0  0  0  0  0  0
    1.0082    5.7105   -2.2484 C   0  0  2  0  0  0  0  0  0  0  0  0
    1.5852    6.8438   -3.0956 C   0  0  1  0  0  0  0  0  0  0  0  0
    3.6112    5.1396   -0.3980 C   0  0  0  0  0  0  0  0  0  0  0  0
    1.6684   -0.3815    2.4189 C   0  0  2  0  0  0  0  0  0  0  0  0
    0.6943   -0.0721    0.2121 C   0  0  1  0  0  0  0  0  0  0  0  0
    2.3896    1.0012    2.3091 C   0  0  1  0  0  0  0  0  0  0  0  0
    1.4958    1.2433   -0.0061 C   0  0  2  0  0  0  0  0  0  0  0  0
    2.9626    3.0819    0.9605 C   0  0  0  0  0  0  0  0  0  0  0  0
    4.2680    7.0345   -1.7256 C   0  0  0  0  0  0  0  0  0  0  0  0
    4.4510    5.5950    0.6651 C   0  0  0  0  0  0  0  0  0  0  0  0
    2.9845    3.8598   -0.2475 C   0  0  0  0  0  0  0  0  0  0  0  0
    4.5048    4.8383    1.8694 C   0  0  0  0  0  0  0  0  0  0  0  0
    5.1648    7.5101   -0.7529 C   0  0  0  0  0  0  0  0  0  0  0  0
    3.7359    3.6596    2.0165 C   0  0  0  0  0  0  0  0  0  0  0  0
    5.2037    6.7918    0.4650 C   0  0  0  0  0  0  0  0  0  0  0  0
    2.4265   -1.4083    3.3014 C   0  0  0  0  0  0  0  0  0  0  0  0
    0.3561   -0.8180   -1.1046 C   0  0  0  0  0  0  0  0  0  0  0  0
    5.9584    8.6741   -1.0235 C   0  0  0  0  0  0  0  0  0  0  0  0
    2.7978    5.0031   -3.3839 H   0  0  0  0  0  0  0  0  0  0  0  0
    0.7416    5.9838   -1.2237 H   0  0  0  0  0  0  0  0  0  0  0  0
    0.3881    4.9906   -2.7878 H   0  0  0  0  0  0  0  0  0  0  0  0
    1.6325    7.8094   -2.5878 H   0  0  0  0  0  0  0  0  0  0  0  0
    1.3117    6.8183   -4.1533 H   0  0  0  0  0  0  0  0  0  0  0  0
    0.6817   -0.2390    2.8775 H   0  0  0  0  0  0  0  0  0  0  0  0
   -0.2584    0.1690    0.6981 H   0  0  0  0  0  0  0  0  0  0  0  0
    3.4586    0.8113    2.4400 H   0  0  0  0  0  0  0  0  0  0  0  0
    2.0171    1.5749    3.1629 H   0  0  0  0  0  0  0  0  0  0  0  0
    2.2131    1.0351   -0.8047 H   0  0  0  0  0  0  0  0  0  0  0  0
    0.7620    1.9765   -0.3514 H   0  0  0  0  0  0  0  0  0  0  0  0
    4.2117    7.5463   -2.6143 H   0  0  0  0  0  0  0  0  0  0  0  0
    2.4026   -1.1108    0.6574 H   0  0  0  0  0  0  0  0  0  0  0  0
    3.4064   -1.6333    2.8732 H   0  0  0  0  0  0  0  0  0  0  0  0
    2.5660   -1.0152    4.3107 H   0  0  0  0  0  0  0  0  0  0  0  0
    1.8585   -2.3393    3.3699 H   0  0  0  0  0  0  0  0  0  0  0  0
   -0.2352   -0.1801   -1.7638 H   0  0  0  0  0  0  0  0  0  0  0  0
   -0.2258   -1.7143   -0.8817 H   0  0  0  0  0  0  0  0  0  0  0  0
    1.2656   -1.1185   -1.6296 H   0  0  0  0  0  0  0  0  0  0  0  0
    5.9093    5.9283    2.8717 H   0  0  0  0  0  0  0  0  0  0  0  0
    5.2603    4.6764    3.7475 H   0  0  0  0  0  0  0  0  0  0  0  0
    1.0031   -1.8581    1.1657 H   0  0  0  0  0  0  0  0  0  0  0  0
  1 21  1  0  0  0  0
  2 24  1  0  0  0  0
  3 25  2  0  0  0  0
  4 28  1  0  0  0  0
  5 28  2  0  0  0  0
  6 10  1  0  0  0  0
  6 13  1  0  0  0  0
  6 19  1  0  0  0  0
  7 16  1  0  0  0  0
  7 17  1  0  0  0  0
  7 18  1  0  0  0  0
 14  8  1  0  0  0  0
 15  8  1  0  0  0  0
  9 22  1  0  0  0  0
 10 11  1  0  0  0  0
 10 12  1  0  0  0  0
 11 12  1  0  0  0  0
 13 20  2  0  0  0  0
 13 21  1  0  0  0  0
 14 16  1  0  0  0  0
 14 26  1  0  0  0  0
 15 17  1  0  0  0  0
 15 27  1  0  0  0  0
 18 21  2  0  0  0  0
 18 24  1  0  0  0  0
 19 23  2  0  0  0  0
 20 22  1  0  0  0  0
 20 25  1  0  0  0  0
 22 24  2  0  0  0  0
 23 25  1  0  0  0  0
 23 28  1  0  0  0  0
 10 29  1  0  0  0  0
 11 30  1  0  0  0  0
 11 31  1  0  0  0  0
 12 32  1  0  0  0  0
 12 33  1  0  0  0  0
 14 34  1  0  0  0  0
 15 35  1  0  0  0  0
 16 36  1  0  0  0  0
 16 37  1  0  0  0  0
 17 38  1  0  0  0  0
 17 39  1  0  0  0  0
 19 40  1  0  0  0  0
  8 41  1  0  0  0  0
 26 42  1  0  0  0  0
 26 43  1  0  0  0  0
 26 44  1  0  0  0  0
 27 45  1  0  0  0  0
 27 46  1  0  0  0  0
 27 47  1  0  0  0  0
  9 48  1  0  0  0  0
  9 49  1  0  0  0  0
  8 50  1  0  0  0  0
M  CHG  2   4  -1   8   1
M  END
$$$$
Terfenadine_p
  Mrv2011 02102114233D          

 77 80  0  0  1  0            999 V2000
   -2.1904    4.4558    8.9361 O   0  0  0  0  0  0  0  0  0  0  0  0
    1.4784   -1.2559    0.5199 O   0  0  0  0  0  0  0  0  0  0  0  0
    0.9941    2.4261    5.6392 N   0  3  2  0  0  0  0  0  0  0  0  0
    0.0807    3.6704    8.2557 C   0  0  2  0  0  0  0  0  0  0  0  0
    1.0619    4.3771    7.2583 C   0  0  2  0  0  0  0  0  0  0  0  0
   -0.7893    2.6774    7.4084 C   0  0  2  0  0  0  0  0  0  0  0  0
   -0.7934    4.5747    9.2560 C   0  0  1  0  0  0  0  0  0  0  0  0
    1.8742    3.3680    6.3983 C   0  0  2  0  0  0  0  0  0  0  0  0
    0.0581    1.6983    6.5575 C   0  0  2  0  0  0  0  0  0  0  0  0
    1.7606    1.5290    4.7065 C   0  0  1  0  0  0  0  0  0  0  0  0
   -0.4008    6.0375    9.1604 C   0  0  0  0  0  0  0  0  0  0  0  0
   -0.8857    4.0704   10.6939 C   0  0  0  0  0  0  0  0  0  0  0  0
    0.8801    1.0183    3.5357 C   0  0  1  0  0  0  0  0  0  0  0  0
    1.6467    0.2122    2.4496 C   0  0  1  0  0  0  0  0  0  0  0  0
   -1.1953    6.9979    8.4761 C   0  0  0  0  0  0  0  0  0  0  0  0
   -1.1841    4.9577   11.7778 C   0  0  0  0  0  0  0  0  0  0  0  0
    0.7900    6.5037    9.7783 C   0  0  0  0  0  0  0  0  0  0  0  0
   -0.7834    2.6851   10.9960 C   0  0  0  0  0  0  0  0  0  0  0  0
    0.7053   -0.4143    1.3774 C   0  0  1  0  0  0  0  0  0  0  0  0
   -0.8461    8.3593    8.4550 C   0  0  0  0  0  0  0  0  0  0  0  0
   -1.3009    4.5779   13.1357 C   0  0  0  0  0  0  0  0  0  0  0  0
    1.1412    7.8662    9.7574 C   0  0  0  0  0  0  0  0  0  0  0  0
   -0.9117    2.2559   12.3684 C   0  0  0  0  0  0  0  0  0  0  0  0
   -0.0465    0.6167    0.5959 C   0  0  0  0  0  0  0  0  0  0  0  0
    0.3145    8.7990    9.1102 C   0  0  0  0  0  0  0  0  0  0  0  0
   -1.1595    3.1883   13.4831 C   0  0  0  0  0  0  0  0  0  0  0  0
   -2.0921    3.9303   -1.4758 C   0  0  2  0  0  0  0  0  0  0  0  0
   -1.4335    2.7433   -0.7822 C   0  0  0  0  0  0  0  0  0  0  0  0
   -1.3678    0.9739    0.9456 C   0  0  0  0  0  0  0  0  0  0  0  0
    0.5507    1.2931   -0.4888 C   0  0  0  0  0  0  0  0  0  0  0  0
   -2.0390    2.0158    0.2779 C   0  0  0  0  0  0  0  0  0  0  0  0
   -0.1366    2.3132   -1.1715 C   0  0  0  0  0  0  0  0  0  0  0  0
   -2.4286    3.5598   -2.9568 C   0  0  0  0  0  0  0  0  0  0  0  0
   -1.1264    5.1673   -1.4581 C   0  0  0  0  0  0  0  0  0  0  0  0
   -3.4306    4.4087   -0.8079 C   0  0  0  0  0  0  0  0  0  0  0  0
    0.7579    3.0731    8.8730 H   0  0  0  0  0  0  0  0  0  0  0  0
    1.7863    4.9783    7.8082 H   0  0  0  0  0  0  0  0  0  0  0  0
    0.5050    5.0454    6.5989 H   0  0  0  0  0  0  0  0  0  0  0  0
   -1.4308    3.2452    6.7270 H   0  0  0  0  0  0  0  0  0  0  0  0
   -1.4461    2.0923    8.0571 H   0  0  0  0  0  0  0  0  0  0  0  0
    2.4792    3.9486    5.6984 H   0  0  0  0  0  0  0  0  0  0  0  0
    2.5591    2.8093    7.0430 H   0  0  0  0  0  0  0  0  0  0  0  0
    0.6107    1.0298    7.2232 H   0  0  0  0  0  0  0  0  0  0  0  0
   -0.6431    1.0889    5.9830 H   0  0  0  0  0  0  0  0  0  0  0  0
    2.5927    2.0792    4.2569 H   0  0  0  0  0  0  0  0  0  0  0  0
    2.1903    0.6819    5.2479 H   0  0  0  0  0  0  0  0  0  0  0  0
    0.0867    0.3833    3.9323 H   0  0  0  0  0  0  0  0  0  0  0  0
    0.4186    1.8884    3.0633 H   0  0  0  0  0  0  0  0  0  0  0  0
   -2.2731    4.7078    7.9951 H   0  0  0  0  0  0  0  0  0  0  0  0
    2.3830    0.8605    1.9644 H   0  0  0  0  0  0  0  0  0  0  0  0
    2.1950   -0.5969    2.9422 H   0  0  0  0  0  0  0  0  0  0  0  0
   -2.0452    6.7229    7.9822 H   0  0  0  0  0  0  0  0  0  0  0  0
   -1.3390    5.9489   11.5819 H   0  0  0  0  0  0  0  0  0  0  0  0
    1.4135    5.8500   10.2608 H   0  0  0  0  0  0  0  0  0  0  0  0
   -0.6333    1.9763   10.2819 H   0  0  0  0  0  0  0  0  0  0  0  0
    0.0026   -1.0785    1.8902 H   0  0  0  0  0  0  0  0  0  0  0  0
   -1.4363    9.0295    7.9603 H   0  0  0  0  0  0  0  0  0  0  0  0
   -1.4975    5.3910   13.8114 H   0  0  0  0  0  0  0  0  0  0  0  0
    2.0003    8.1803   10.2127 H   0  0  0  0  0  0  0  0  0  0  0  0
   -0.8105    1.1936   12.4717 H   0  0  0  0  0  0  0  0  0  0  0  0
    0.5601    9.7918    9.1121 H   0  0  0  0  0  0  0  0  0  0  0  0
   -1.2396    2.8616   14.4448 H   0  0  0  0  0  0  0  0  0  0  0  0
   -1.8488    0.4918    1.7093 H   0  0  0  0  0  0  0  0  0  0  0  0
    1.4977    1.0508   -0.7885 H   0  0  0  0  0  0  0  0  0  0  0  0
    0.8317   -1.6880   -0.0776 H   0  0  0  0  0  0  0  0  0  0  0  0
   -2.9817    2.2335    0.5976 H   0  0  0  0  0  0  0  0  0  0  0  0
    0.3413    2.7545   -1.9573 H   0  0  0  0  0  0  0  0  0  0  0  0
   -2.9222    4.3947   -3.4609 H   0  0  0  0  0  0  0  0  0  0  0  0
   -3.1000    2.6988   -2.9937 H   0  0  0  0  0  0  0  0  0  0  0  0
   -1.5287    3.3167   -3.5245 H   0  0  0  0  0  0  0  0  0  0  0  0
   -1.6079    6.0510   -1.8833 H   0  0  0  0  0  0  0  0  0  0  0  0
   -0.8241    5.4028   -0.4346 H   0  0  0  0  0  0  0  0  0  0  0  0
   -0.2247    4.9889   -2.0466 H   0  0  0  0  0  0  0  0  0  0  0  0
   -3.8222    5.3036   -1.2988 H   0  0  0  0  0  0  0  0  0  0  0  0
   -4.2024    3.6390   -0.8769 H   0  0  0  0  0  0  0  0  0  0  0  0
   -3.2735    4.6525    0.2455 H   0  0  0  0  0  0  0  0  0  0  0  0
    0.4105    3.0177    5.0433 H   0  0  0  0  0  0  0  0  0  0  0  0
  1  7  1  0  0  0  0
 19  2  1  0  0  0  0
  3  8  1  0  0  0  0
  3  9  1  0  0  0  0
  3 10  1  0  0  0  0
  4  5  1  0  0  0  0
  4  6  1  0  0  0  0
  4  7  1  0  0  0  0
  5  8  1  0  0  0  0
  6  9  1  0  0  0  0
  7 11  1  0  0  0  0
  7 12  1  0  0  0  0
 10 13  1  0  0  0  0
 11 15  2  0  0  0  0
 11 17  1  0  0  0  0
 12 16  2  0  0  0  0
 12 18  1  0  0  0  0
 13 14  1  0  0  0  0
 19 14  1  0  0  0  0
 15 20  1  0  0  0  0
 16 21  1  0  0  0  0
 17 22  2  0  0  0  0
 18 23  2  0  0  0  0
 19 24  1  0  0  0  0
 20 25  2  0  0  0  0
 21 26  2  0  0  0  0
 22 25  1  0  0  0  0
 23 26  1  0  0  0  0
 24 29  2  0  0  0  0
 24 30  1  0  0  0  0
 27 28  1  0  0  0  0
 27 33  1  0  0  0  0
 27 34  1  0  0  0  0
 27 35  1  0  0  0  0
 28 31  2  0  0  0  0
 28 32  1  0  0  0  0
 29 31  1  0  0  0  0
 30 32  2  0  0  0  0
  4 36  1  0  0  0  0
  5 37  1  0  0  0  0
  5 38  1  0  0  0  0
  6 39  1  0  0  0  0
  6 40  1  0  0  0  0
  8 41  1  0  0  0  0
  8 42  1  0  0  0  0
  9 43  1  0  0  0  0
  9 44  1  0  0  0  0
 10 45  1  0  0  0  0
 10 46  1  0  0  0  0
 13 47  1  0  0  0  0
 13 48  1  0  0  0  0
  1 49  1  0  0  0  0
 14 50  1  0  0  0  0
 14 51  1  0  0  0  0
 15 52  1  0  0  0  0
 16 53  1  0  0  0  0
 17 54  1  0  0  0  0
 18 55  1  0  0  0  0
 19 56  1  0  0  0  0
 20 57  1  0  0  0  0
 21 58  1  0  0  0  0
 22 59  1  0  0  0  0
 23 60  1  0  0  0  0
 25 61  1  0  0  0  0
 26 62  1  0  0  0  0
 29 63  1  0  0  0  0
 30 64  1  0  0  0  0
  2 65  1  0  0  0  0
 31 66  1  0  0  0  0
 32 67  1  0  0  0  0
 33 68  1  0  0  0  0
 33 69  1  0  0  0  0
 33 70  1  0  0  0  0
 34 71  1  0  0  0  0
 34 72  1  0  0  0  0
 34 73  1  0  0  0  0
 35 74  1  0  0  0  0
 35 75  1  0  0  0  0
 35 76  1  0  0  0  0
  3 77  1  0  0  0  0
M  CHG  1   3   1
M  END
$$$$
Terodiline_p
  Mrv2011 02102114243D          

 49 50  0  0  1  0            999 V2000
    0.6507   -0.4659    0.7638 N   0  3  1  0  0  0  0  0  0  0  0  0
    0.6294    0.1888    2.1030 C   0  0  2  0  0  0  0  0  0  0  0  0
   -0.6189    1.1367    2.1478 C   0  0  1  0  0  0  0  0  0  0  0  0
    1.5449   -1.5995    0.3775 C   0  0  2  0  0  0  0  0  0  0  0  0
   -2.0171    0.4142    2.1566 C   0  0  2  0  0  0  0  0  0  0  0  0
    1.9379    0.9619    2.4278 C   0  0  0  0  0  0  0  0  0  0  0  0
   -2.4263   -0.2878    0.8933 C   0  0  0  0  0  0  0  0  0  0  0  0
   -3.1583    1.2873    2.5846 C   0  0  0  0  0  0  0  0  0  0  0  0
    1.6560   -2.6853    1.4920 C   0  0  0  0  0  0  0  0  0  0  0  0
    2.9527   -1.0862   -0.0625 C   0  0  0  0  0  0  0  0  0  0  0  0
    0.8422   -2.2321   -0.8689 C   0  0  0  0  0  0  0  0  0  0  0  0
   -2.8571   -1.6386    0.9333 C   0  0  0  0  0  0  0  0  0  0  0  0
   -3.3416    2.5952    2.0704 C   0  0  0  0  0  0  0  0  0  0  0  0
   -2.4147    0.3628   -0.3673 C   0  0  0  0  0  0  0  0  0  0  0  0
   -4.1109    0.8003    3.5162 C   0  0  0  0  0  0  0  0  0  0  0  0
   -3.2626   -2.3114   -0.2348 C   0  0  0  0  0  0  0  0  0  0  0  0
   -4.4217    3.3935    2.4866 C   0  0  0  0  0  0  0  0  0  0  0  0
   -2.8094   -0.3098   -1.5386 C   0  0  0  0  0  0  0  0  0  0  0  0
   -5.1938    1.5939    3.9311 C   0  0  0  0  0  0  0  0  0  0  0  0
   -3.2352   -1.6473   -1.4719 C   0  0  0  0  0  0  0  0  0  0  0  0
   -5.3458    2.8929    3.4186 C   0  0  0  0  0  0  0  0  0  0  0  0
    0.4964   -0.5663    2.8821 H   0  0  0  0  0  0  0  0  0  0  0  0
   -0.5601    1.7257    3.0679 H   0  0  0  0  0  0  0  0  0  0  0  0
   -0.5497    1.8450    1.3159 H   0  0  0  0  0  0  0  0  0  0  0  0
   -1.8985   -0.3479    2.9356 H   0  0  0  0  0  0  0  0  0  0  0  0
   -0.2873   -0.8397    0.6476 H   0  0  0  0  0  0  0  0  0  0  0  0
    1.8112    1.5984    3.3058 H   0  0  0  0  0  0  0  0  0  0  0  0
    2.2374    1.5889    1.5866 H   0  0  0  0  0  0  0  0  0  0  0  0
    2.7422    0.2648    2.6563 H   0  0  0  0  0  0  0  0  0  0  0  0
    2.1676   -3.5755    1.1190 H   0  0  0  0  0  0  0  0  0  0  0  0
    2.2192   -2.3091    2.3465 H   0  0  0  0  0  0  0  0  0  0  0  0
    0.6624   -2.9792    1.8396 H   0  0  0  0  0  0  0  0  0  0  0  0
    3.5604   -0.7932    0.7913 H   0  0  0  0  0  0  0  0  0  0  0  0
    3.5025   -1.8641   -0.5970 H   0  0  0  0  0  0  0  0  0  0  0  0
    2.8572   -0.2222   -0.7239 H   0  0  0  0  0  0  0  0  0  0  0  0
    1.4214   -3.0652   -1.2703 H   0  0  0  0  0  0  0  0  0  0  0  0
   -0.1493   -2.6098   -0.6056 H   0  0  0  0  0  0  0  0  0  0  0  0
    0.7181   -1.4905   -1.6629 H   0  0  0  0  0  0  0  0  0  0  0  0
   -2.8887   -2.1466    1.8199 H   0  0  0  0  0  0  0  0  0  0  0  0
   -2.6887    2.9854    1.3907 H   0  0  0  0  0  0  0  0  0  0  0  0
   -2.1123    1.3331   -0.4491 H   0  0  0  0  0  0  0  0  0  0  0  0
   -4.0226   -0.1419    3.9009 H   0  0  0  0  0  0  0  0  0  0  0  0
   -3.5808   -3.2817   -0.1853 H   0  0  0  0  0  0  0  0  0  0  0  0
   -4.5337    4.3365    2.1104 H   0  0  0  0  0  0  0  0  0  0  0  0
   -2.7874    0.1742   -2.4399 H   0  0  0  0  0  0  0  0  0  0  0  0
   -5.8679    1.2266    4.6043 H   0  0  0  0  0  0  0  0  0  0  0  0
   -3.5286   -2.1367   -2.3210 H   0  0  0  0  0  0  0  0  0  0  0  0
   -6.1304    3.4708    3.7224 H   0  0  0  0  0  0  0  0  0  0  0  0
    0.7576    0.2679    0.0606 H   0  0  0  0  0  0  0  0  0  0  0  0
  2  1  1  0  0  0  0
  1  4  1  0  0  0  0
  2  3  1  0  0  0  0
  2  6  1  0  0  0  0
  3  5  1  0  0  0  0
  4  9  1  0  0  0  0
  4 10  1  0  0  0  0
  4 11  1  0  0  0  0
  5  7  1  0  0  0  0
  5  8  1  0  0  0  0
  7 12  2  0  0  0  0
  7 14  1  0  0  0  0
  8 13  2  0  0  0  0
  8 15  1  0  0  0  0
 12 16  1  0  0  0  0
 13 17  1  0  0  0  0
 14 18  2  0  0  0  0
 15 19  2  0  0  0  0
 16 20  2  0  0  0  0
 17 21  2  0  0  0  0
 18 20  1  0  0  0  0
 19 21  1  0  0  0  0
  2 22  1  0  0  0  0
  3 23  1  0  0  0  0
  3 24  1  0  0  0  0
  5 25  1  0  0  0  0
  1 26  1  0  0  0  0
  6 27  1  0  0  0  0
  6 28  1  0  0  0  0
  6 29  1  0  0  0  0
  9 30  1  0  0  0  0
  9 31  1  0  0  0  0
  9 32  1  0  0  0  0
 10 33  1  0  0  0  0
 10 34  1  0  0  0  0
 10 35  1  0  0  0  0
 11 36  1  0  0  0  0
 11 37  1  0  0  0  0
 11 38  1  0  0  0  0
 12 39  1  0  0  0  0
 13 40  1  0  0  0  0
 14 41  1  0  0  0  0
 15 42  1  0  0  0  0
 16 43  1  0  0  0  0
 17 44  1  0  0  0  0
 18 45  1  0  0  0  0
 19 46  1  0  0  0  0
 20 47  1  0  0  0  0
 21 48  1  0  0  0  0
  1 49  1  0  0  0  0
M  CHG  1   1   1
M  END
$$$$
Thioridazine_p
  Mrv2011 02102114253D          

 52 55  0  0  1  0            999 V2000
    5.1693    3.2937   -1.5198 S   0  0  0  0  0  0  0  0  0  0  0  0
    4.7247   -2.2221   -4.5123 S   0  0  0  0  0  0  0  0  0  0  0  0
   -1.2132   -1.7517   -0.6858 N   0  3  1  0  0  0  0  0  0  0  0  0
    3.0248    1.1217   -0.8241 N   0  0  0  0  0  0  0  0  0  0  0  0
    0.1780   -1.5581   -0.1009 C   0  0  1  0  0  0  0  0  0  0  0  0
    1.0318   -2.8649   -0.2480 C   0  0  2  0  0  0  0  0  0  0  0  0
    0.9477   -0.3631   -0.7750 C   0  0  1  0  0  0  0  0  0  0  0  0
    0.3092   -4.1322    0.2564 C   0  0  2  0  0  0  0  0  0  0  0  0
   -1.9043   -3.0088   -0.2325 C   0  0  1  0  0  0  0  0  0  0  0  0
   -1.0540   -4.2797   -0.4452 C   0  0  2  0  0  0  0  0  0  0  0  0
    2.3500   -0.0122   -0.1729 C   0  0  2  0  0  0  0  0  0  0  0  0
   -2.1454   -0.5884   -0.5015 C   0  0  0  0  0  0  0  0  0  0  0  0
    3.9149    0.8456   -1.8978 C   0  0  0  0  0  0  0  0  0  0  0  0
    2.8601    2.4143   -0.2603 C   0  0  0  0  0  0  0  0  0  0  0  0
    4.9549    1.7391   -2.2778 C   0  0  0  0  0  0  0  0  0  0  0  0
    3.7961    3.4669   -0.4617 C   0  0  0  0  0  0  0  0  0  0  0  0
    3.8704   -0.3704   -2.6477 C   0  0  0  0  0  0  0  0  0  0  0  0
    1.7676    2.7463    0.5977 C   0  0  0  0  0  0  0  0  0  0  0  0
    5.9042    1.4258   -3.2702 C   0  0  0  0  0  0  0  0  0  0  0  0
    3.7002    4.7110    0.1948 C   0  0  0  0  0  0  0  0  0  0  0  0
    4.8162   -0.7012   -3.6392 C   0  0  0  0  0  0  0  0  0  0  0  0
    1.6590    3.9827    1.2586 C   0  0  0  0  0  0  0  0  0  0  0  0
    5.8476    0.1981   -3.9371 C   0  0  0  0  0  0  0  0  0  0  0  0
    2.6406    4.9622    1.0733 C   0  0  0  0  0  0  0  0  0  0  0  0
    5.3422   -3.4606   -3.3287 C   0  0  0  0  0  0  0  0  0  0  0  0
    0.0810   -1.3426    0.9706 H   0  0  0  0  0  0  0  0  0  0  0  0
    1.9593   -2.7850    0.3234 H   0  0  0  0  0  0  0  0  0  0  0  0
    1.2921   -3.0118   -1.3013 H   0  0  0  0  0  0  0  0  0  0  0  0
    1.0369   -0.5770   -1.8404 H   0  0  0  0  0  0  0  0  0  0  0  0
    0.3463    0.5381   -0.7066 H   0  0  0  0  0  0  0  0  0  0  0  0
    0.1693   -4.0734    1.3402 H   0  0  0  0  0  0  0  0  0  0  0  0
    0.9249   -5.0093    0.0402 H   0  0  0  0  0  0  0  0  0  0  0  0
   -2.1789   -2.9354    0.8256 H   0  0  0  0  0  0  0  0  0  0  0  0
   -2.8246   -3.1511   -0.8076 H   0  0  0  0  0  0  0  0  0  0  0  0
   -1.5819   -5.1484   -0.0432 H   0  0  0  0  0  0  0  0  0  0  0  0
   -0.8991   -4.4384   -1.5164 H   0  0  0  0  0  0  0  0  0  0  0  0
    2.2407    0.1563    0.9011 H   0  0  0  0  0  0  0  0  0  0  0  0
    3.0031   -0.8824   -0.1988 H   0  0  0  0  0  0  0  0  0  0  0  0
   -3.1559   -0.8251   -0.8462 H   0  0  0  0  0  0  0  0  0  0  0  0
   -2.2002   -0.2914    0.5513 H   0  0  0  0  0  0  0  0  0  0  0  0
   -1.8297    0.2644   -1.1011 H   0  0  0  0  0  0  0  0  0  0  0  0
    3.1445   -1.0620   -2.4770 H   0  0  0  0  0  0  0  0  0  0  0  0
    1.0199    2.0826    0.7827 H   0  0  0  0  0  0  0  0  0  0  0  0
    6.6481    2.0842   -3.5160 H   0  0  0  0  0  0  0  0  0  0  0  0
    4.3997    5.4430    0.0443 H   0  0  0  0  0  0  0  0  0  0  0  0
    0.8700    4.1659    1.8800 H   0  0  0  0  0  0  0  0  0  0  0  0
    6.5602   -0.0324   -4.6327 H   0  0  0  0  0  0  0  0  0  0  0  0
    2.5858    5.8517    1.5738 H   0  0  0  0  0  0  0  0  0  0  0  0
    5.2105   -4.4525   -3.7586 H   0  0  0  0  0  0  0  0  0  0  0  0
    4.7804   -3.3953   -2.3967 H   0  0  0  0  0  0  0  0  0  0  0  0
    6.4016   -3.2952   -3.1290 H   0  0  0  0  0  0  0  0  0  0  0  0
   -1.0803   -1.8539   -1.6960 H   0  0  0  0  0  0  0  0  0  0  0  0
  1 15  1  0  0  0  0
  1 16  1  0  0  0  0
  2 21  1  0  0  0  0
  2 25  1  0  0  0  0
  5  3  1  0  0  0  0
  3  9  1  0  0  0  0
  3 12  1  0  0  0  0
  4 11  1  0  0  0  0
  4 13  1  0  0  0  0
  4 14  1  0  0  0  0
  5  6  1  0  0  0  0
  5  7  1  0  0  0  0
  6  8  1  0  0  0  0
  7 11  1  0  0  0  0
  8 10  1  0  0  0  0
  9 10  1  0  0  0  0
 13 15  2  0  0  0  0
 13 17  1  0  0  0  0
 14 16  2  0  0  0  0
 14 18  1  0  0  0  0
 15 19  1  0  0  0  0
 16 20  1  0  0  0  0
 17 21  2  0  0  0  0
 18 22  2  0  0  0  0
 19 23  2  0  0  0  0
 20 24  2  0  0  0  0
 21 23  1  0  0  0  0
 22 24  1  0  0  0  0
  5 26  1  0  0  0  0
  6 27  1  0  0  0  0
  6 28  1  0  0  0  0
  7 29  1  0  0  0  0
  7 30  1  0  0  0  0
  8 31  1  0  0  0  0
  8 32  1  0  0  0  0
  9 33  1  0  0  0  0
  9 34  1  0  0  0  0
 10 35  1  0  0  0  0
 10 36  1  0  0  0  0
 11 37  1  0  0  0  0
 11 38  1  0  0  0  0
 12 39  1  0  0  0  0
 12 40  1  0  0  0  0
 12 41  1  0  0  0  0
 17 42  1  0  0  0  0
 18 43  1  0  0  0  0
 19 44  1  0  0  0  0
 20 45  1  0  0  0  0
 22 46  1  0  0  0  0
 23 47  1  0  0  0  0
 24 48  1  0  0  0  0
 25 49  1  0  0  0  0
 25 50  1  0  0  0  0
 25 51  1  0  0  0  0
  3 52  1  0  0  0  0
M  CHG  1   3   1
M  END
$$$$
Verapamil_p
  Mrv2011 02102114263D          

 72 73  0  0  1  0            999 V2000
   -2.6563   -2.3763    4.2021 O   0  0  0  0  0  0  0  0  0  0  0  0
   -2.9608   -4.7681    2.7773 O   0  0  0  0  0  0  0  0  0  0  0  0
   -8.7316   -6.2618   -2.0403 O   0  0  0  0  0  0  0  0  0  0  0  0
   -9.2027   -6.0640    0.7180 O   0  0  0  0  0  0  0  0  0  0  0  0
   -5.5013   -0.3470   -3.1466 N   0  3  2  0  0  0  0  0  0  0  0  0
    1.1117   -0.0520   -0.1423 N   0  0  0  0  0  0  0  0  0  0  0  0
   -1.4153    0.0858    0.0384 C   0  0  2  0  0  0  0  0  0  0  0  0
   -1.7827    1.4362    0.8245 C   0  0  2  0  0  0  0  0  0  0  0  0
   -1.9716    0.1348   -1.4493 C   0  0  1  0  0  0  0  0  0  0  0  0
   -3.5208    0.1042   -1.6045 C   0  0  2  0  0  0  0  0  0  0  0  0
   -1.7473   -1.2157    0.7805 C   0  0  0  0  0  0  0  0  0  0  0  0
   -4.0016   -0.3128   -3.0228 C   0  0  1  0  0  0  0  0  0  0  0  0
   -3.2734    1.5572    1.3066 C   0  0  0  0  0  0  0  0  0  0  0  0
   -1.3690    2.7715    0.1221 C   0  0  0  0  0  0  0  0  0  0  0  0
   -0.0321    0.0165   -0.0609 C   0  0  0  0  0  0  0  0  0  0  0  0
   -1.9697   -1.2570    2.1870 C   0  0  0  0  0  0  0  0  0  0  0  0
   -1.8132   -2.4771    0.1177 C   0  0  0  0  0  0  0  0  0  0  0  0
   -6.1162   -1.5735   -2.5293 C   0  0  2  0  0  0  0  0  0  0  0  0
   -2.3802   -2.4257    2.8611 C   0  0  0  0  0  0  0  0  0  0  0  0
   -5.9665   -0.1358   -4.5544 C   0  0  0  0  0  0  0  0  0  0  0  0
   -2.1859   -3.6598    0.7832 C   0  0  0  0  0  0  0  0  0  0  0  0
   -7.6466   -1.4792   -2.2723 C   0  0  1  0  0  0  0  0  0  0  0  0
   -2.4963   -3.6386    2.1541 C   0  0  0  0  0  0  0  0  0  0  0  0
   -8.1085   -2.6582   -1.4906 C   0  0  0  0  0  0  0  0  0  0  0  0
   -8.2591   -3.9107   -2.1291 C   0  0  0  0  0  0  0  0  0  0  0  0
   -8.3434   -2.5706   -0.0990 C   0  0  0  0  0  0  0  0  0  0  0  0
   -8.6130   -5.0600   -1.3951 C   0  0  0  0  0  0  0  0  0  0  0  0
   -4.0147   -1.9865    4.4793 C   0  0  0  0  0  0  0  0  0  0  0  0
   -8.7100   -3.7123    0.6365 C   0  0  0  0  0  0  0  0  0  0  0  0
   -8.8602   -4.9566   -0.0085 C   0  0  0  0  0  0  0  0  0  0  0  0
   -1.9303   -5.6255    3.2946 C   0  0  0  0  0  0  0  0  0  0  0  0
   -7.4869   -6.9806   -2.1282 C   0  0  0  0  0  0  0  0  0  0  0  0
  -10.6239   -6.2732    0.7980 C   0  0  0  0  0  0  0  0  0  0  0  0
   -1.1796    1.4447    1.7403 H   0  0  0  0  0  0  0  0  0  0  0  0
   -1.6166    1.0360   -1.9584 H   0  0  0  0  0  0  0  0  0  0  0  0
   -1.5549   -0.6895   -2.0374 H   0  0  0  0  0  0  0  0  0  0  0  0
   -3.9207    1.1006   -1.4105 H   0  0  0  0  0  0  0  0  0  0  0  0
   -3.9309   -0.5730   -0.8598 H   0  0  0  0  0  0  0  0  0  0  0  0
   -3.5824   -1.2866   -3.2912 H   0  0  0  0  0  0  0  0  0  0  0  0
   -3.5729    0.4199   -3.7131 H   0  0  0  0  0  0  0  0  0  0  0  0
   -3.8642    2.2233    0.6737 H   0  0  0  0  0  0  0  0  0  0  0  0
   -3.3122    1.9654    2.3193 H   0  0  0  0  0  0  0  0  0  0  0  0
   -3.7832    0.5935    1.3265 H   0  0  0  0  0  0  0  0  0  0  0  0
   -0.3564    2.7122   -0.2754 H   0  0  0  0  0  0  0  0  0  0  0  0
   -1.4009    3.5992    0.8343 H   0  0  0  0  0  0  0  0  0  0  0  0
   -2.0434    3.0156   -0.7000 H   0  0  0  0  0  0  0  0  0  0  0  0
   -1.8473   -0.4241    2.7603 H   0  0  0  0  0  0  0  0  0  0  0  0
   -1.5909   -2.5660   -0.8739 H   0  0  0  0  0  0  0  0  0  0  0  0
   -5.6546   -1.7690   -1.5596 H   0  0  0  0  0  0  0  0  0  0  0  0
   -5.9060   -2.4470   -3.1559 H   0  0  0  0  0  0  0  0  0  0  0  0
   -5.4344    0.6844   -5.0401 H   0  0  0  0  0  0  0  0  0  0  0  0
   -7.0226    0.1348   -4.5601 H   0  0  0  0  0  0  0  0  0  0  0  0
   -5.8330   -1.0355   -5.1612 H   0  0  0  0  0  0  0  0  0  0  0  0
   -7.8578   -0.5506   -1.7354 H   0  0  0  0  0  0  0  0  0  0  0  0
   -8.1952   -1.4403   -3.2172 H   0  0  0  0  0  0  0  0  0  0  0  0
   -2.2466   -4.5384    0.2619 H   0  0  0  0  0  0  0  0  0  0  0  0
   -8.0977   -3.9962   -3.1366 H   0  0  0  0  0  0  0  0  0  0  0  0
   -8.2344   -1.6792    0.3928 H   0  0  0  0  0  0  0  0  0  0  0  0
   -4.1534   -1.9829    5.5605 H   0  0  0  0  0  0  0  0  0  0  0  0
   -4.2252   -0.9802    4.1074 H   0  0  0  0  0  0  0  0  0  0  0  0
   -4.7314   -2.6909    4.0485 H   0  0  0  0  0  0  0  0  0  0  0  0
   -8.8607   -3.6363    1.6446 H   0  0  0  0  0  0  0  0  0  0  0  0
   -2.4163   -6.4758    3.7751 H   0  0  0  0  0  0  0  0  0  0  0  0
   -1.2891   -6.0064    2.4963 H   0  0  0  0  0  0  0  0  0  0  0  0
   -1.3210   -5.1126    4.0424 H   0  0  0  0  0  0  0  0  0  0  0  0
   -7.6690   -7.9087   -2.6707 H   0  0  0  0  0  0  0  0  0  0  0  0
   -6.7295   -6.4124   -2.6750 H   0  0  0  0  0  0  0  0  0  0  0  0
   -7.1034   -7.2362   -1.1373 H   0  0  0  0  0  0  0  0  0  0  0  0
  -10.7976   -7.1835    1.3724 H   0  0  0  0  0  0  0  0  0  0  0  0
  -11.1202   -5.4465    1.3130 H   0  0  0  0  0  0  0  0  0  0  0  0
  -11.0687   -6.4073   -0.1918 H   0  0  0  0  0  0  0  0  0  0  0  0
   -5.8416    0.4559   -2.6137 H   0  0  0  0  0  0  0  0  0  0  0  0
  1 19  1  0  0  0  0
  1 28  1  0  0  0  0
  2 23  1  0  0  0  0
  2 31  1  0  0  0  0
  3 27  1  0  0  0  0
  3 32  1  0  0  0  0
  4 30  1  0  0  0  0
  4 33  1  0  0  0  0
  5 12  1  0  0  0  0
  5 18  1  0  0  0  0
  5 20  1  0  0  0  0
  6 15  3  0  0  0  0
  7  8  1  0  0  0  0
  7  9  1  0  0  0  0
  7 11  1  0  0  0  0
  7 15  1  0  0  0  0
  8 13  1  0  0  0  0
  8 14  1  0  0  0  0
  9 10  1  0  0  0  0
 10 12  1  0  0  0  0
 11 16  2  0  0  0  0
 11 17  1  0  0  0  0
 16 19  1  0  0  0  0
 17 21  2  0  0  0  0
 18 22  1  0  0  0  0
 19 23  2  0  0  0  0
 21 23  1  0  0  0  0
 22 24  1  0  0  0  0
 24 25  2  0  0  0  0
 24 26  1  0  0  0  0
 25 27  1  0  0  0  0
 26 29  2  0  0  0  0
 27 30  2  0  0  0  0
 29 30  1  0  0  0  0
  8 34  1  0  0  0  0
  9 35  1  0  0  0  0
  9 36  1  0  0  0  0
 10 37  1  0  0  0  0
 10 38  1  0  0  0  0
 12 39  1  0  0  0  0
 12 40  1  0  0  0  0
 13 41  1  0  0  0  0
 13 42  1  0  0  0  0
 13 43  1  0  0  0  0
 14 44  1  0  0  0  0
 14 45  1  0  0  0  0
 14 46  1  0  0  0  0
 16 47  1  0  0  0  0
 17 48  1  0  0  0  0
 18 49  1  0  0  0  0
 18 50  1  0  0  0  0
 20 51  1  0  0  0  0
 20 52  1  0  0  0  0
 20 53  1  0  0  0  0
 22 54  1  0  0  0  0
 22 55  1  0  0  0  0
 21 56  1  0  0  0  0
 25 57  1  0  0  0  0
 26 58  1  0  0  0  0
 28 59  1  0  0  0  0
 28 60  1  0  0  0  0
 28 61  1  0  0  0  0
 29 62  1  0  0  0  0
 31 63  1  0  0  0  0
 31 64  1  0  0  0  0
 31 65  1  0  0  0  0
 32 66  1  0  0  0  0
 32 67  1  0  0  0  0
 32 68  1  0  0  0  0
 33 69  1  0  0  0  0
 33 70  1  0  0  0  0
 33 71  1  0  0  0  0
  5 72  1  0  0  0  0
M  CHG  1   5   1
M  END
$$$$
Raltegravir
  Mrv2011 02102114362D          

 52 54  0  0  0  0            999 V2000
   11.1133   -0.0148    0.0000 F   0  0  0  0  0  0  0  0  0  0  0  0
    7.4068    2.1384    0.0000 O   0  5  0  0  0  0  0  0  0  0  0  0
    6.5851    3.5695    0.0000 O   0  0  0  0  0  0  0  0  0  0  0  0
    3.2780    0.7205    0.0000 O   0  0  0  0  0  0  0  0  0  0  0  0
    1.5554    0.7722    0.0000 O   0  0  0  0  0  0  0  0  0  0  0  0
    6.1633   -0.0016    0.0000 O   0  0  0  0  0  0  0  0  0  0  0  0
    3.2818    2.1494    0.0000 N   0  0  0  0  0  0  0  0  0  0  0  0
    5.3460    2.8583    0.0000 N   0  0  0  0  0  0  0  0  0  0  0  0
    5.3421    1.4294    0.0000 N   0  0  0  0  0  0  0  0  0  0  0  0
    7.4030    0.7095    0.0000 N   0  0  0  0  0  0  0  0  0  0  0  0
    1.5592    2.1070    0.0000 N   0  0  0  0  0  0  0  0  0  0  0  0
    0.7738    1.8540    0.0000 N   0  0  0  0  0  0  0  0  0  0  0  0
    4.1068    2.1472    0.0000 C   0  0  0  0  0  0  0  0  0  0  0  0
    4.9318    2.1450    0.0000 C   0  0  0  0  0  0  0  0  0  0  0  0
    4.1090    2.9722    0.0000 C   0  0  0  0  0  0  0  0  0  0  0  0
    4.1046    1.3222    0.0000 C   0  0  0  0  0  0  0  0  0  0  0  0
    6.1710    2.8561    0.0000 C   0  0  0  0  0  0  0  0  0  0  0  0
    6.1671    1.4272    0.0000 C   0  0  0  0  0  0  0  0  0  0  0  0
    4.9351    3.5739    0.0000 C   0  0  0  0  0  0  0  0  0  0  0  0
    6.5818    2.1406    0.0000 C   0  0  0  0  0  0  0  0  0  0  0  0
    2.8671    1.4360    0.0000 C   0  0  0  0  0  0  0  0  0  0  0  0
    6.5780    0.7117    0.0000 C   0  0  0  0  0  0  0  0  0  0  0  0
    2.0421    1.4382    0.0000 C   0  0  0  0  0  0  0  0  0  0  0  0
    7.8133   -0.0060    0.0000 C   0  0  0  0  0  0  0  0  0  0  0  0
    8.6383   -0.0082    0.0000 C   0  0  0  0  0  0  0  0  0  0  0  0
    9.0530    0.7051    0.0000 C   0  0  0  0  0  0  0  0  0  0  0  0
    9.0491   -0.7238    0.0000 C   0  0  0  0  0  0  0  0  0  0  0  0
    0.7716    1.0290    0.0000 C   0  0  0  0  0  0  0  0  0  0  0  0
    9.8780    0.7029    0.0000 C   0  0  0  0  0  0  0  0  0  0  0  0
    9.8741   -0.7260    0.0000 C   0  0  0  0  0  0  0  0  0  0  0  0
   10.2883   -0.0126    0.0000 C   0  0  0  0  0  0  0  0  0  0  0  0
    0.1028    0.5461    0.0000 C   0  0  0  0  0  0  0  0  0  0  0  0
    3.4446    1.3238    0.0000 H   0  0  0  0  0  0  0  0  0  0  0  0
    4.1024    0.6622    0.0000 H   0  0  0  0  0  0  0  0  0  0  0  0
    4.7646    1.3205    0.0000 H   0  0  0  0  0  0  0  0  0  0  0  0
    4.7690    2.9705    0.0000 H   0  0  0  0  0  0  0  0  0  0  0  0
    4.1107    3.6322    0.0000 H   0  0  0  0  0  0  0  0  0  0  0  0
    3.4490    2.9738    0.0000 H   0  0  0  0  0  0  0  0  0  0  0  0
    2.9529    2.7219    0.0000 H   0  0  0  0  0  0  0  0  0  0  0  0
    5.5077    3.9022    0.0000 H   0  0  0  0  0  0  0  0  0  0  0  0
    4.6068    4.1464    0.0000 H   0  0  0  0  0  0  0  0  0  0  0  0
    4.3631    3.2455    0.0000 H   0  0  0  0  0  0  0  0  0  0  0  0
    7.7341    1.2804    0.0000 H   0  0  0  0  0  0  0  0  0  0  0  0
    7.9266   -0.6561    0.0000 H   0  0  0  0  0  0  0  0  0  0  0  0
    7.1929   -0.2299    0.0000 H   0  0  0  0  0  0  0  0  0  0  0  0
    8.7241    1.2776    0.0000 H   0  0  0  0  0  0  0  0  0  0  0  0
    8.7175   -1.2941    0.0000 H   0  0  0  0  0  0  0  0  0  0  0  0
   10.2091    1.2738    0.0000 H   0  0  0  0  0  0  0  0  0  0  0  0
   10.2025   -1.2985    0.0000 H   0  0  0  0  0  0  0  0  0  0  0  0
   -0.2838    1.0807    0.0000 H   0  0  0  0  0  0  0  0  0  0  0  0
   -0.4323    0.1595    0.0000 H   0  0  0  0  0  0  0  0  0  0  0  0
    0.4895    0.0110    0.0000 H   0  0  0  0  0  0  0  0  0  0  0  0
  1 31  1  0  0  0  0
  2 20  1  0  0  0  0
  3 17  2  0  0  0  0
  4 21  2  0  0  0  0
  5 23  1  0  0  0  0
  5 28  1  0  0  0  0
  6 22  2  0  0  0  0
  7 13  1  0  0  0  0
  7 21  1  0  0  0  0
  8 14  1  0  0  0  0
  8 17  1  0  0  0  0
  8 19  1  0  0  0  0
  9 14  2  0  0  0  0
  9 18  1  0  0  0  0
 10 22  1  0  0  0  0
 10 24  1  0  0  0  0
 11 12  1  0  0  0  0
 11 23  2  0  0  0  0
 12 28  2  0  0  0  0
 13 14  1  0  0  0  0
 13 15  1  0  0  0  0
 13 16  1  0  0  0  0
 17 20  1  0  0  0  0
 18 20  2  0  0  0  0
 18 22  1  0  0  0  0
 21 23  1  0  0  0  0
 24 25  1  0  0  0  0
 25 26  2  0  0  0  0
 25 27  1  0  0  0  0
 26 29  1  0  0  0  0
 27 30  2  0  0  0  0
 28 32  1  0  0  0  0
 29 31  2  0  0  0  0
 30 31  1  0  0  0  0
 16 33  1  0  0  0  0
 16 34  1  0  0  0  0
 16 35  1  0  0  0  0
 15 36  1  0  0  0  0
 15 37  1  0  0  0  0
 15 38  1  0  0  0  0
  7 39  1  0  0  0  0
 19 40  1  0  0  0  0
 19 41  1  0  0  0  0
 19 42  1  0  0  0  0
 10 43  1  0  0  0  0
 24 44  1  0  0  0  0
 24 45  1  0  0  0  0
 26 46  1  0  0  0  0
 27 47  1  0  0  0  0
 29 48  1  0  0  0  0
 30 49  1  0  0  0  0
 32 50  1  0  0  0  0
 32 51  1  0  0  0  0
 32 52  1  0  0  0  0
M  CHG  1   2  -1
M  END
$$$$
Dasatinib_p
  Mrv2011 02162113592D          

 60 63  0  0  0  0            999 V2000
   -5.5227   -4.0997    0.0000 Cl  0  0  0  0  0  0  0  0  0  0  0  0
   -2.9830   -3.8873    0.0000 S   0  0  0  0  0  0  0  0  0  0  0  0
    4.8577   -5.5139    0.0000 O   0  0  0  0  0  0  0  0  0  0  0  0
   -4.6993   -4.0463    0.0000 O   0  0  0  0  0  0  0  0  0  0  0  0
    2.7322   -5.0166    0.0000 N   0  3  0  0  0  0  0  0  0  0  0  0
    1.3367   -4.1354    0.0000 N   0  0  0  0  0  0  0  0  0  0  0  0
    0.6722   -2.8703    0.0000 N   0  0  0  0  0  0  0  0  0  0  0  0
   -0.7563   -2.8136    0.0000 N   0  0  0  0  0  0  0  0  0  0  0  0
   -1.5193   -4.0221    0.0000 N   0  0  0  0  0  0  0  0  0  0  0  0
   -2.2707   -2.7586    0.0000 N   0  0  0  0  0  0  0  0  0  0  0  0
   -4.7922   -2.6200    0.0000 N   0  0  0  0  0  0  0  0  0  0  0  0
    2.0017   -5.4006    0.0000 C   0  0  0  0  0  0  0  0  0  0  0  0
    2.7647   -4.1921    0.0000 C   0  0  0  0  0  0  0  0  0  0  0  0
    1.3042   -4.9600    0.0000 C   0  0  0  0  0  0  0  0  0  0  0  0
    2.0672   -3.7515    0.0000 C   0  0  0  0  0  0  0  0  0  0  0  0
    3.4297   -5.4572    0.0000 C   0  0  0  0  0  0  0  0  0  0  0  0
    0.6392   -3.6948    0.0000 C   0  0  0  0  0  0  0  0  0  0  0  0
    4.1602   -5.0733    0.0000 C   0  0  0  0  0  0  0  0  0  0  0  0
   -0.0913   -4.0788    0.0000 C   0  0  0  0  0  0  0  0  0  0  0  0
   -0.7888   -3.6382    0.0000 C   0  0  0  0  0  0  0  0  0  0  0  0
   -0.0259   -2.4302    0.0000 C   0  0  0  0  0  0  0  0  0  0  0  0
    0.0072   -1.6057    0.0000 C   0  0  0  0  0  0  0  0  0  0  0  0
   -2.2168   -3.5815    0.0000 C   0  0  0  0  0  0  0  0  0  0  0  0
   -3.5105   -3.2526    0.0000 C   0  0  0  0  0  0  0  0  0  0  0  0
   -5.6157   -2.6739    0.0000 C   0  0  0  0  0  0  0  0  0  0  0  0
   -3.0699   -2.5551    0.0000 C   0  0  0  0  0  0  0  0  0  0  0  0
   -6.0739   -1.9874    0.0000 C   0  0  0  0  0  0  0  0  0  0  0  0
   -4.3340   -3.3065    0.0000 C   0  0  0  0  0  0  0  0  0  0  0  0
   -5.9809   -3.4137    0.0000 C   0  0  0  0  0  0  0  0  0  0  0  0
   -6.8968   -2.0413    0.0000 C   0  0  0  0  0  0  0  0  0  0  0  0
   -5.7086   -1.2476    0.0000 C   0  0  0  0  0  0  0  0  0  0  0  0
   -6.8038   -3.4676    0.0000 C   0  0  0  0  0  0  0  0  0  0  0  0
   -7.2620   -2.7812    0.0000 C   0  0  0  0  0  0  0  0  0  0  0  0
    1.5578   -5.8891    0.0000 H   0  0  0  0  0  0  0  0  0  0  0  0
    2.4060   -5.9226    0.0000 H   0  0  0  0  0  0  0  0  0  0  0  0
    3.0149   -3.5810    0.0000 H   0  0  0  0  0  0  0  0  0  0  0  0
    3.4099   -4.3324    0.0000 H   0  0  0  0  0  0  0  0  0  0  0  0
    0.6590   -4.8197    0.0000 H   0  0  0  0  0  0  0  0  0  0  0  0
    1.0539   -5.5706    0.0000 H   0  0  0  0  0  0  0  0  0  0  0  0
    1.6634   -3.2295    0.0000 H   0  0  0  0  0  0  0  0  0  0  0  0
    2.5111   -3.2630    0.0000 H   0  0  0  0  0  0  0  0  0  0  0  0
    3.8340   -5.9793    0.0000 H   0  0  0  0  0  0  0  0  0  0  0  0
    2.9858   -5.9457    0.0000 H   0  0  0  0  0  0  0  0  0  0  0  0
    4.6041   -4.5848    0.0000 H   0  0  0  0  0  0  0  0  0  0  0  0
    3.7564   -4.5513    0.0000 H   0  0  0  0  0  0  0  0  0  0  0  0
   -0.1172   -4.7383    0.0000 H   0  0  0  0  0  0  0  0  0  0  0  0
    5.4424   -5.2064    0.0000 H   0  0  0  0  0  0  0  0  0  0  0  0
   -1.5451   -4.6816    0.0000 H   0  0  0  0  0  0  0  0  0  0  0  0
    0.6667   -1.6315    0.0000 H   0  0  0  0  0  0  0  0  0  0  0  0
    0.0330   -0.9461    0.0000 H   0  0  0  0  0  0  0  0  0  0  0  0
   -0.6524   -1.5793    0.0000 H   0  0  0  0  0  0  0  0  0  0  0  0
   -3.3147   -1.9417    0.0000 H   0  0  0  0  0  0  0  0  0  0  0  0
   -4.5001   -2.0281    0.0000 H   0  0  0  0  0  0  0  0  0  0  0  0
   -7.2637   -1.4923    0.0000 H   0  0  0  0  0  0  0  0  0  0  0  0
   -5.1168   -1.5396    0.0000 H   0  0  0  0  0  0  0  0  0  0  0  0
   -5.4165   -0.6557    0.0000 H   0  0  0  0  0  0  0  0  0  0  0  0
   -6.3005   -0.9555    0.0000 H   0  0  0  0  0  0  0  0  0  0  0  0
   -7.0965   -4.0595    0.0000 H   0  0  0  0  0  0  0  0  0  0  0  0
   -7.9210   -2.8241    0.0000 H   0  0  0  0  0  0  0  0  0  0  0  0
    3.4875   -4.6847    0.0000 H   0  0  0  0  0  0  0  0  0  0  0  0
  1 29  1  0  0  0  0
  2 23  1  0  0  0  0
  2 24  1  0  0  0  0
  3 18  1  0  0  0  0
  4 28  2  0  0  0  0
  5 12  1  0  0  0  0
  5 13  1  0  0  0  0
  5 16  1  0  0  0  0
  6 14  1  0  0  0  0
  6 15  1  0  0  0  0
  6 17  1  0  0  0  0
  7 17  2  0  0  0  0
  7 21  1  0  0  0  0
  8 20  1  0  0  0  0
  8 21  2  0  0  0  0
  9 20  1  0  0  0  0
  9 23  1  0  0  0  0
 10 23  2  0  0  0  0
 10 26  1  0  0  0  0
 11 25  1  0  0  0  0
 11 28  1  0  0  0  0
 12 14  1  0  0  0  0
 13 15  1  0  0  0  0
 16 18  1  0  0  0  0
 17 19  1  0  0  0  0
 19 20  2  0  0  0  0
 21 22  1  0  0  0  0
 24 26  2  0  0  0  0
 24 28  1  0  0  0  0
 25 27  2  0  0  0  0
 25 29  1  0  0  0  0
 27 30  1  0  0  0  0
 27 31  1  0  0  0  0
 29 32  2  0  0  0  0
 30 33  2  0  0  0  0
 32 33  1  0  0  0  0
 12 34  1  0  0  0  0
 12 35  1  0  0  0  0
 13 36  1  0  0  0  0
 13 37  1  0  0  0  0
 14 38  1  0  0  0  0
 14 39  1  0  0  0  0
 15 40  1  0  0  0  0
 15 41  1  0  0  0  0
 16 42  1  0  0  0  0
 16 43  1  0  0  0  0
 18 44  1  0  0  0  0
 18 45  1  0  0  0  0
 19 46  1  0  0  0  0
  3 47  1  0  0  0  0
  9 48  1  0  0  0  0
 22 49  1  0  0  0  0
 22 50  1  0  0  0  0
 22 51  1  0  0  0  0
 26 52  1  0  0  0  0
 11 53  1  0  0  0  0
 30 54  1  0  0  0  0
 31 55  1  0  0  0  0
 31 56  1  0  0  0  0
 31 57  1  0  0  0  0
 32 58  1  0  0  0  0
 33 59  1  0  0  0  0
  5 60  1  0  0  0  0
M  CHG  1   5   1
M  END
$$$$
Sunitinib_p
  Mrv2011 02162114103D          

 57 59  0  0  0  0            999 V2000
   -5.5620    2.1829   -6.8776 F   0  0  0  0  0  0  0  0  0  0  0  0
   -5.5826   12.4278   -2.4808 O   0  0  0  0  0  0  0  0  0  0  0  0
   -2.6872    6.2946   -1.9414 O   0  0  0  0  0  0  0  0  0  0  0  0
  -10.3807   13.7981   -4.5063 N   0  3  2  0  0  0  0  0  0  0  0  0
   -4.3719    8.4406   -2.3917 N   0  0  0  0  0  0  0  0  0  0  0  0
   -7.2605   11.7470   -3.8336 N   0  0  0  0  0  0  0  0  0  0  0  0
   -2.8224    4.1823   -2.6746 N   0  0  0  0  0  0  0  0  0  0  0  0
   -9.0382   13.2097   -4.8758 C   0  0  1  0  0  0  0  0  0  0  0  0
   -5.4808   10.2151   -3.1393 C   0  0  0  0  0  0  0  0  0  0  0  0
   -5.5724    9.1737   -4.0826 C   0  0  0  0  0  0  0  0  0  0  0  0
   -4.8920    8.0498   -3.5645 C   0  0  0  0  0  0  0  0  0  0  0  0
   -8.0570   12.9353   -3.6962 C   0  0  1  0  0  0  0  0  0  0  0  0
   -4.6635    9.7155   -2.1159 C   0  0  0  0  0  0  0  0  0  0  0  0
  -11.2850   14.0090   -5.6972 C   0  0  1  0  0  0  0  0  0  0  0  0
  -10.3147   15.0342   -3.6392 C   0  0  1  0  0  0  0  0  0  0  0  0
   -6.0938   11.5038   -3.1590 C   0  0  0  0  0  0  0  0  0  0  0  0
   -4.1268    5.6715   -3.7460 C   0  0  0  0  0  0  0  0  0  0  0  0
   -4.8258    6.7690   -4.1241 C   0  0  0  0  0  0  0  0  0  0  0  0
   -4.2298    4.4235   -4.3527 C   0  0  0  0  0  0  0  0  0  0  0  0
   -6.2590    9.2673   -5.3936 C   0  0  0  0  0  0  0  0  0  0  0  0
   -3.4265    3.5199   -3.6549 C   0  0  0  0  0  0  0  0  0  0  0  0
   -4.1757   10.3953   -0.9008 C   0  0  0  0  0  0  0  0  0  0  0  0
   -3.2014    5.4699   -2.7259 C   0  0  0  0  0  0  0  0  0  0  0  0
  -11.5690   12.7704   -6.5811 C   0  0  0  0  0  0  0  0  0  0  0  0
  -11.6418   15.3417   -2.8993 C   0  0  0  0  0  0  0  0  0  0  0  0
   -4.9675    3.9694   -5.4700 C   0  0  0  0  0  0  0  0  0  0  0  0
   -3.3266    2.1649   -4.0115 C   0  0  0  0  0  0  0  0  0  0  0  0
   -4.8820    2.6113   -5.8497 C   0  0  0  0  0  0  0  0  0  0  0  0
   -4.0677    1.7142   -5.1221 C   0  0  0  0  0  0  0  0  0  0  0  0
   -9.2089   12.2525   -5.3717 H   0  0  0  0  0  0  0  0  0  0  0  0
   -8.5401   13.8622   -5.6012 H   0  0  0  0  0  0  0  0  0  0  0  0
   -8.6336   12.7985   -2.7796 H   0  0  0  0  0  0  0  0  0  0  0  0
   -7.4186   13.8160   -3.5749 H   0  0  0  0  0  0  0  0  0  0  0  0
   -3.8613    7.8836   -1.7960 H   0  0  0  0  0  0  0  0  0  0  0  0
  -12.2664   14.3431   -5.3518 H   0  0  0  0  0  0  0  0  0  0  0  0
  -10.8799   14.7971   -6.3386 H   0  0  0  0  0  0  0  0  0  0  0  0
   -9.5670   14.9230   -2.8535 H   0  0  0  0  0  0  0  0  0  0  0  0
  -10.0180   15.9093   -4.2244 H   0  0  0  0  0  0  0  0  0  0  0  0
   -5.4122    6.6450   -4.9117 H   0  0  0  0  0  0  0  0  0  0  0  0
   -7.6215   11.0347   -4.3829 H   0  0  0  0  0  0  0  0  0  0  0  0
   -7.3326    9.1339   -5.2559 H   0  0  0  0  0  0  0  0  0  0  0  0
   -5.8971    8.5181   -6.0943 H   0  0  0  0  0  0  0  0  0  0  0  0
   -6.0711   10.2400   -5.8508 H   0  0  0  0  0  0  0  0  0  0  0  0
   -5.0210   10.7080   -0.2864 H   0  0  0  0  0  0  0  0  0  0  0  0
   -3.5393    9.7317   -0.3121 H   0  0  0  0  0  0  0  0  0  0  0  0
   -3.5873   11.2685   -1.1852 H   0  0  0  0  0  0  0  0  0  0  0  0
  -10.6968   12.5245   -7.1897 H   0  0  0  0  0  0  0  0  0  0  0  0
  -11.8321   11.9088   -5.9653 H   0  0  0  0  0  0  0  0  0  0  0  0
  -12.4007   12.9844   -7.2572 H   0  0  0  0  0  0  0  0  0  0  0  0
  -12.3447   15.8496   -3.5622 H   0  0  0  0  0  0  0  0  0  0  0  0
  -11.4589   15.9921   -2.0405 H   0  0  0  0  0  0  0  0  0  0  0  0
  -12.0974   14.4176   -2.5395 H   0  0  0  0  0  0  0  0  0  0  0  0
   -2.1967    3.8054   -2.0357 H   0  0  0  0  0  0  0  0  0  0  0  0
   -5.5590    4.6073   -6.0042 H   0  0  0  0  0  0  0  0  0  0  0  0
   -2.7309    1.5244   -3.4832 H   0  0  0  0  0  0  0  0  0  0  0  0
   -4.0112    0.7315   -5.4010 H   0  0  0  0  0  0  0  0  0  0  0  0
  -10.8412   13.0881   -3.9318 H   0  0  0  0  0  0  0  0  0  0  0  0
  1 28  1  0  0  0  0
  2 16  2  0  0  0  0
  3 23  2  0  0  0  0
  4  8  1  0  0  0  0
  4 14  1  0  0  0  0
  4 15  1  0  0  0  0
  5 11  1  0  0  0  0
  5 13  1  0  0  0  0
  6 12  1  0  0  0  0
  6 16  1  0  0  0  0
  7 21  1  0  0  0  0
  7 23  1  0  0  0  0
  8 12  1  0  0  0  0
  9 10  1  0  0  0  0
  9 13  2  0  0  0  0
  9 16  1  0  0  0  0
 10 11  2  0  0  0  0
 10 20  1  0  0  0  0
 18 11  1  0  0  0  0
 13 22  1  0  0  0  0
 14 24  1  0  0  0  0
 15 25  1  0  0  0  0
 17 18  2  0  0  0  0
 17 19  1  0  0  0  0
 17 23  1  0  0  0  0
 19 21  2  0  0  0  0
 19 26  1  0  0  0  0
 21 27  1  0  0  0  0
 26 28  2  0  0  0  0
 27 29  2  0  0  0  0
 28 29  1  0  0  0  0
  8 30  1  0  0  0  0
  8 31  1  0  0  0  0
 12 32  1  0  0  0  0
 12 33  1  0  0  0  0
  5 34  1  0  0  0  0
 14 35  1  0  0  0  0
 14 36  1  0  0  0  0
 15 37  1  0  0  0  0
 15 38  1  0  0  0  0
 18 39  1  0  0  0  0
  6 40  1  0  0  0  0
 20 41  1  0  0  0  0
 20 42  1  0  0  0  0
 20 43  1  0  0  0  0
 22 44  1  0  0  0  0
 22 45  1  0  0  0  0
 22 46  1  0  0  0  0
 24 47  1  0  0  0  0
 24 48  1  0  0  0  0
 24 49  1  0  0  0  0
 25 50  1  0  0  0  0
 25 51  1  0  0  0  0
 25 52  1  0  0  0  0
  7 53  1  0  0  0  0
 26 54  1  0  0  0  0
 27 55  1  0  0  0  0
 29 56  1  0  0  0  0
  4 57  1  0  0  0  0
M  CHG  1   4   1
M  END
$$$$
Sitagliptin_p
  Mrv2011 02162114093D          

 44 46  0  0  1  0            999 V2000
    5.5911    1.0482    1.9617 N   0  3  0  0  0  0  0  0  0  0  0  0
    5.3543    1.7664    0.6966 C   0  0  1  0  0  0  0  0  0  0  0  0
    4.6047    3.1089    0.9739 C   0  0  1  0  0  0  0  0  0  0  0  0
    4.1035    3.7045   -0.2936 C   0  0  0  0  0  0  0  0  0  0  0  0
    4.8131    4.6040   -0.8088 O   0  0  0  0  0  0  0  0  0  0  0  0
    3.0051    3.2426   -0.9908 N   0  0  0  0  0  0  0  0  0  0  0  0
    1.7881    2.7770   -0.3499 C   0  0  2  0  0  0  0  0  0  0  0  0
    1.4566    1.3168   -0.7624 C   0  0  2  0  0  0  0  0  0  0  0  0
    1.7882    1.0591   -2.1362 N   0  0  0  0  0  0  0  0  0  0  0  0
    2.5049    1.8924   -2.9112 C   0  0  0  0  0  0  0  0  0  0  0  0
    3.0330    3.1924   -2.4435 C   0  0  1  0  0  0  0  0  0  0  0  0
    2.6378    1.3529   -4.1309 N   0  0  0  0  0  0  0  0  0  0  0  0
    2.0262    0.2111   -4.1230 N   0  0  0  0  0  0  0  0  0  0  0  0
    1.4910   -0.0064   -2.9058 C   0  0  0  0  0  0  0  0  0  0  0  0
    0.6919   -1.2010   -2.5481 C   0  0  1  0  0  0  0  0  0  0  0  0
    1.0098   -2.2746   -3.3458 F   0  0  0  0  0  0  0  0  0  0  0  0
    0.9046   -1.5929   -1.2487 F   0  0  0  0  0  0  0  0  0  0  0  0
   -0.6418   -0.9168   -2.7152 F   0  0  0  0  0  0  0  0  0  0  0  0
    6.6884    1.9851   -0.0832 C   0  0  2  0  0  0  0  0  0  0  0  0
    7.4343    0.7245   -0.3579 C   0  0  0  0  0  0  0  0  0  0  0  0
    8.3824    0.2589    0.5849 C   0  0  0  0  0  0  0  0  0  0  0  0
    9.0859   -0.9406    0.3746 C   0  0  0  0  0  0  0  0  0  0  0  0
    9.9374   -1.3539    1.2758 F   0  0  0  0  0  0  0  0  0  0  0  0
    8.8673   -1.6813   -0.8026 C   0  0  0  0  0  0  0  0  0  0  0  0
    9.5212   -2.7906   -1.0136 F   0  0  0  0  0  0  0  0  0  0  0  0
    7.9392   -1.2252   -1.7580 C   0  0  0  0  0  0  0  0  0  0  0  0
    7.2204   -0.0337   -1.5379 C   0  0  0  0  0  0  0  0  0  0  0  0
    6.3599    0.3461   -2.4471 F   0  0  0  0  0  0  0  0  0  0  0  0
    6.1687    1.6138    2.5880 H   0  0  0  0  0  0  0  0  0  0  0  0
    4.6966    0.8393    2.4127 H   0  0  0  0  0  0  0  0  0  0  0  0
    4.7065    1.1177    0.1001 H   0  0  0  0  0  0  0  0  0  0  0  0
    3.7871    2.9420    1.6717 H   0  0  0  0  0  0  0  0  0  0  0  0
    5.2868    3.8092    1.4664 H   0  0  0  0  0  0  0  0  0  0  0  0
    0.9757    3.4252   -0.6930 H   0  0  0  0  0  0  0  0  0  0  0  0
    1.7909    2.8537    0.7372 H   0  0  0  0  0  0  0  0  0  0  0  0
    0.3889    1.1418   -0.6001 H   0  0  0  0  0  0  0  0  0  0  0  0
    2.0195    0.6257   -0.1297 H   0  0  0  0  0  0  0  0  0  0  0  0
    2.4219    3.9994   -2.8513 H   0  0  0  0  0  0  0  0  0  0  0  0
    4.0482    3.2968   -2.8381 H   0  0  0  0  0  0  0  0  0  0  0  0
    7.3216    2.6784    0.4782 H   0  0  0  0  0  0  0  0  0  0  0  0
    6.4719    2.4783   -1.0332 H   0  0  0  0  0  0  0  0  0  0  0  0
    8.5610    0.7934    1.4396 H   0  0  0  0  0  0  0  0  0  0  0  0
    7.7859   -1.7634   -2.6147 H   0  0  0  0  0  0  0  0  0  0  0  0
    6.0721    0.1673    1.7620 H   0  0  0  0  0  0  0  0  0  0  0  0
  2  1  1  0  0  0  0
  2  3  1  0  0  0  0
  2 19  1  0  0  0  0
  3  4  1  0  0  0  0
  4  5  2  0  0  0  0
  4  6  1  0  0  0  0
  6  7  1  0  0  0  0
  6 11  1  0  0  0  0
  7  8  1  0  0  0  0
  8  9  1  0  0  0  0
  9 10  1  0  0  0  0
  9 14  1  0  0  0  0
 10 11  1  0  0  0  0
 10 12  2  0  0  0  0
 12 13  1  0  0  0  0
 13 14  2  0  0  0  0
 14 15  1  0  0  0  0
 15 16  1  0  0  0  0
 15 17  1  0  0  0  0
 15 18  1  0  0  0  0
 19 20  1  0  0  0  0
 20 21  2  0  0  0  0
 20 27  1  0  0  0  0
 21 22  1  0  0  0  0
 22 23  1  0  0  0  0
 22 24  2  0  0  0  0
 24 25  1  0  0  0  0
 24 26  1  0  0  0  0
 26 27  2  0  0  0  0
 27 28  1  0  0  0  0
  1 29  1  0  0  0  0
  1 30  1  0  0  0  0
  2 31  1  0  0  0  0
  3 32  1  0  0  0  0
  3 33  1  0  0  0  0
  7 34  1  0  0  0  0
  7 35  1  0  0  0  0
  8 36  1  0  0  0  0
  8 37  1  0  0  0  0
 11 38  1  0  0  0  0
 11 39  1  0  0  0  0
 19 40  1  0  0  0  0
 19 41  1  0  0  0  0
 21 42  1  0  0  0  0
 26 43  1  0  0  0  0
  1 44  1  0  0  0  0
M  CHG  1   1   1
M  END
$$$$
Saquinavir_p
  Mrv2011 02162114083D          

100104  0  0  1  0            999 V2000
   -0.5417    3.4946   -7.0012 N   0  3  1  0  0  0  0  0  0  0  0  0
    0.1766    4.8311   -7.0564 C   0  0  1  0  0  0  0  0  0  0  0  0
   -1.2014    3.2245   -8.3310 C   0  0  1  0  0  0  0  0  0  0  0  0
    0.3422    2.3655   -6.5294 C   0  0  1  0  0  0  0  0  0  0  0  0
   -0.8154    5.9897   -7.3940 C   0  0  2  0  0  0  0  0  0  0  0  0
    1.0015    5.2138   -5.8675 C   0  0  0  0  0  0  0  0  0  0  0  0
   -2.2318    4.3186   -8.7491 C   0  0  2  0  0  0  0  0  0  0  0  0
   -0.1975    0.8949   -6.4797 C   0  0  2  0  0  0  0  0  0  0  0  0
   -1.5754    5.7368   -8.7319 C   0  0  1  0  0  0  0  0  0  0  0  0
    0.4356    5.6369   -4.6926 N   0  0  0  0  0  0  0  0  0  0  0  0
    2.2486    5.1996   -6.0024 O   0  0  0  0  0  0  0  0  0  0  0  0
   -3.5351    4.2631   -7.8921 C   0  0  2  0  0  0  0  0  0  0  0  0
   -1.3611    0.5522   -5.4893 C   0  0  2  0  0  0  0  0  0  0  0  0
    0.9089    0.0593   -6.1294 O   0  0  0  0  0  0  0  0  0  0  0  0
   -2.6129    6.8525   -9.0783 C   0  0  2  0  0  0  0  0  0  0  0  0
   -4.5453    5.3718   -8.2801 C   0  0  2  0  0  0  0  0  0  0  0  0
   -2.7650    1.0532   -5.9462 C   0  0  1  0  0  0  0  0  0  0  0  0
   -1.0967    1.0531   -4.1668 N   0  0  0  0  0  0  0  0  0  0  0  0
   -3.9042    6.7805   -8.2230 C   0  0  2  0  0  0  0  0  0  0  0  0
   -3.8935    0.4949   -5.1455 C   0  0  0  0  0  0  0  0  0  0  0  0
   -1.1750    0.3466   -2.9985 C   0  0  0  0  0  0  0  0  0  0  0  0
   -1.1345    1.0119   -1.6640 C   0  0  1  0  0  0  0  0  0  0  0  0
   -1.3662   -0.8938   -3.0328 O   0  0  0  0  0  0  0  0  0  0  0  0
   -0.3333    0.2367   -0.7537 N   0  0  0  0  0  0  0  0  0  0  0  0
   -0.8898    2.5591   -1.6735 C   0  0  2  0  0  0  0  0  0  0  0  0
    0.8463    0.5231   -0.1313 C   0  0  0  0  0  0  0  0  0  0  0  0
   -2.0131    3.3427   -2.2352 C   0  0  0  0  0  0  0  0  0  0  0  0
    1.2680   -0.3507    0.8926 C   0  0  0  0  0  0  0  0  0  0  0  0
    1.5199    1.5521   -0.3723 O   0  0  0  0  0  0  0  0  0  0  0  0
   -3.1499    3.5226   -1.5362 N   0  0  0  0  0  0  0  0  0  0  0  0
   -1.9197    3.8746   -3.3653 O   0  0  0  0  0  0  0  0  0  0  0  0
    1.6849    0.1796    2.0745 N   0  0  0  0  0  0  0  0  0  0  0  0
    1.1950   -1.7568    0.7674 C   0  0  0  0  0  0  0  0  0  0  0  0
    1.9959   -0.5695    3.1657 C   0  0  0  0  0  0  0  0  0  0  0  0
    1.5176   -2.5704    1.8681 C   0  0  0  0  0  0  0  0  0  0  0  0
    1.9108   -1.9866    3.0907 C   0  0  0  0  0  0  0  0  0  0  0  0
    2.3702    0.0529    4.3738 C   0  0  0  0  0  0  0  0  0  0  0  0
    2.2077   -2.7609    4.2346 C   0  0  0  0  0  0  0  0  0  0  0  0
    2.6529   -0.7287    5.5099 C   0  0  0  0  0  0  0  0  0  0  0  0
    2.5738   -2.1319    5.4394 C   0  0  0  0  0  0  0  0  0  0  0  0
   -5.5621    0.7155   -3.3555 C   0  0  0  0  0  0  0  0  0  0  0  0
   -4.5054    1.2522   -4.1168 C   0  0  0  0  0  0  0  0  0  0  0  0
   -4.3840   -0.8087   -5.4031 C   0  0  0  0  0  0  0  0  0  0  0  0
   -5.4576   -1.3336   -4.6604 C   0  0  0  0  0  0  0  0  0  0  0  0
   -6.0466   -0.5744   -3.6339 C   0  0  0  0  0  0  0  0  0  0  0  0
    1.0959    6.3107   -3.5903 C   0  0  1  0  0  0  0  0  0  0  0  0
    2.2309    5.4475   -2.9516 C   0  0  0  0  0  0  0  0  0  0  0  0
    1.6575    7.6775   -4.1011 C   0  0  0  0  0  0  0  0  0  0  0  0
    0.0127    6.5950   -2.4986 C   0  0  0  0  0  0  0  0  0  0  0  0
    0.8765    4.7809   -7.9005 H   0  0  0  0  0  0  0  0  0  0  0  0
   -0.4369    3.1426   -9.1117 H   0  0  0  0  0  0  0  0  0  0  0  0
   -1.7313    2.2747   -8.3287 H   0  0  0  0  0  0  0  0  0  0  0  0
    1.2366    2.3555   -7.1608 H   0  0  0  0  0  0  0  0  0  0  0  0
    0.6758    2.5974   -5.5155 H   0  0  0  0  0  0  0  0  0  0  0  0
   -0.2621    6.9311   -7.4798 H   0  0  0  0  0  0  0  0  0  0  0  0
   -1.5286    6.0996   -6.5738 H   0  0  0  0  0  0  0  0  0  0  0  0
   -2.5217    4.1028   -9.7836 H   0  0  0  0  0  0  0  0  0  0  0  0
   -0.4807    0.5725   -7.4844 H   0  0  0  0  0  0  0  0  0  0  0  0
   -0.8221    5.7610   -9.5277 H   0  0  0  0  0  0  0  0  0  0  0  0
   -0.5278    5.5425   -4.6252 H   0  0  0  0  0  0  0  0  0  0  0  0
   -3.2937    4.3679   -6.8321 H   0  0  0  0  0  0  0  0  0  0  0  0
   -4.0217    3.2940   -8.0301 H   0  0  0  0  0  0  0  0  0  0  0  0
   -1.4259   -0.5417   -5.4813 H   0  0  0  0  0  0  0  0  0  0  0  0
    1.5611    0.1805   -6.8530 H   0  0  0  0  0  0  0  0  0  0  0  0
   -2.8946    6.7537  -10.1305 H   0  0  0  0  0  0  0  0  0  0  0  0
   -2.1576    7.8388   -8.9596 H   0  0  0  0  0  0  0  0  0  0  0  0
   -5.3974    5.3374   -7.5956 H   0  0  0  0  0  0  0  0  0  0  0  0
   -4.9208    5.1841   -9.2904 H   0  0  0  0  0  0  0  0  0  0  0  0
   -2.7817    2.1427   -5.8993 H   0  0  0  0  0  0  0  0  0  0  0  0
   -2.9323    0.7751   -6.9899 H   0  0  0  0  0  0  0  0  0  0  0  0
   -0.8948    1.9982   -4.0999 H   0  0  0  0  0  0  0  0  0  0  0  0
   -4.6242    7.5157   -8.5921 H   0  0  0  0  0  0  0  0  0  0  0  0
   -3.6754    7.0374   -7.1861 H   0  0  0  0  0  0  0  0  0  0  0  0
   -2.1387    0.8790   -1.2515 H   0  0  0  0  0  0  0  0  0  0  0  0
   -0.7246   -0.6152   -0.5008 H   0  0  0  0  0  0  0  0  0  0  0  0
    0.0245    2.7776   -2.2323 H   0  0  0  0  0  0  0  0  0  0  0  0
   -0.7413    2.9163   -0.6514 H   0  0  0  0  0  0  0  0  0  0  0  0
   -3.8715    4.0493   -1.9193 H   0  0  0  0  0  0  0  0  0  0  0  0
   -3.2464    3.1355   -0.6492 H   0  0  0  0  0  0  0  0  0  0  0  0
    0.9039   -2.1936   -0.1113 H   0  0  0  0  0  0  0  0  0  0  0  0
    1.4532   -3.5869    1.7739 H   0  0  0  0  0  0  0  0  0  0  0  0
    2.4277    1.0726    4.4363 H   0  0  0  0  0  0  0  0  0  0  0  0
    2.1540   -3.7823    4.2011 H   0  0  0  0  0  0  0  0  0  0  0  0
    2.9134   -0.2765    6.3897 H   0  0  0  0  0  0  0  0  0  0  0  0
    2.7806   -2.6957    6.2679 H   0  0  0  0  0  0  0  0  0  0  0  0
   -5.9813    1.2655   -2.5991 H   0  0  0  0  0  0  0  0  0  0  0  0
   -4.1875    2.2016   -3.9161 H   0  0  0  0  0  0  0  0  0  0  0  0
   -3.9707   -1.3839   -6.1399 H   0  0  0  0  0  0  0  0  0  0  0  0
   -5.8073   -2.2711   -4.8699 H   0  0  0  0  0  0  0  0  0  0  0  0
   -6.8269   -0.9553   -3.0927 H   0  0  0  0  0  0  0  0  0  0  0  0
    2.6170    5.9228   -2.0471 H   0  0  0  0  0  0  0  0  0  0  0  0
    3.0710    5.3171   -3.6332 H   0  0  0  0  0  0  0  0  0  0  0  0
    1.8553    4.4582   -2.6868 H   0  0  0  0  0  0  0  0  0  0  0  0
    2.0495    8.2800   -3.2787 H   0  0  0  0  0  0  0  0  0  0  0  0
    2.4675    7.5254   -4.8169 H   0  0  0  0  0  0  0  0  0  0  0  0
    0.8710    8.2493   -4.6005 H   0  0  0  0  0  0  0  0  0  0  0  0
    0.4165    7.2013   -1.6819 H   0  0  0  0  0  0  0  0  0  0  0  0
   -0.3522    5.6635   -2.0640 H   0  0  0  0  0  0  0  0  0  0  0  0
   -0.8403    7.1298   -2.9247 H   0  0  0  0  0  0  0  0  0  0  0  0
   -1.2876    3.5857   -6.3100 H   0  0  0  0  0  0  0  0  0  0  0  0
  2  1  1  0  0  0  0
  1  3  1  0  0  0  0
  1  4  1  0  0  0  0
  2  5  1  0  0  0  0
  2  6  1  0  0  0  0
  7  3  1  0  0  0  0
  8  4  1  0  0  0  0
  9  5  1  0  0  0  0
  6 10  1  0  0  0  0
  6 11  2  0  0  0  0
  7  9  1  0  0  0  0
  7 12  1  0  0  0  0
  8 13  1  0  0  0  0
  8 14  1  0  0  0  0
  9 15  1  0  0  0  0
 10 46  1  0  0  0  0
 12 16  1  0  0  0  0
 13 17  1  0  0  0  0
 13 18  1  0  0  0  0
 15 19  1  0  0  0  0
 16 19  1  0  0  0  0
 17 20  1  0  0  0  0
 18 21  1  0  0  0  0
 20 42  2  0  0  0  0
 20 43  1  0  0  0  0
 22 21  1  0  0  0  0
 21 23  2  0  0  0  0
 22 24  1  0  0  0  0
 22 25  1  0  0  0  0
 24 26  1  0  0  0  0
 25 27  1  0  0  0  0
 26 28  1  0  0  0  0
 26 29  2  0  0  0  0
 27 30  1  0  0  0  0
 27 31  2  0  0  0  0
 28 32  2  0  0  0  0
 28 33  1  0  0  0  0
 32 34  1  0  0  0  0
 33 35  2  0  0  0  0
 34 36  1  0  0  0  0
 34 37  2  0  0  0  0
 35 36  1  0  0  0  0
 36 38  2  0  0  0  0
 37 39  1  0  0  0  0
 38 40  1  0  0  0  0
 39 40  2  0  0  0  0
 41 42  1  0  0  0  0
 41 45  2  0  0  0  0
 43 44  2  0  0  0  0
 44 45  1  0  0  0  0
 46 47  1  0  0  0  0
 46 48  1  0  0  0  0
 46 49  1  0  0  0  0
  2 50  1  0  0  0  0
  3 51  1  0  0  0  0
  3 52  1  0  0  0  0
  4 53  1  0  0  0  0
  4 54  1  0  0  0  0
  5 55  1  0  0  0  0
  5 56  1  0  0  0  0
  7 57  1  0  0  0  0
  8 58  1  0  0  0  0
  9 59  1  0  0  0  0
 10 60  1  0  0  0  0
 12 61  1  0  0  0  0
 12 62  1  0  0  0  0
 13 63  1  0  0  0  0
 14 64  1  0  0  0  0
 15 65  1  0  0  0  0
 15 66  1  0  0  0  0
 16 67  1  0  0  0  0
 16 68  1  0  0  0  0
 17 69  1  0  0  0  0
 17 70  1  0  0  0  0
 18 71  1  0  0  0  0
 19 72  1  0  0  0  0
 19 73  1  0  0  0  0
 22 74  1  0  0  0  0
 24 75  1  0  0  0  0
 25 76  1  0  0  0  0
 25 77  1  0  0  0  0
 30 78  1  0  0  0  0
 30 79  1  0  0  0  0
 33 80  1  0  0  0  0
 35 81  1  0  0  0  0
 37 82  1  0  0  0  0
 38 83  1  0  0  0  0
 39 84  1  0  0  0  0
 40 85  1  0  0  0  0
 41 86  1  0  0  0  0
 42 87  1  0  0  0  0
 43 88  1  0  0  0  0
 44 89  1  0  0  0  0
 45 90  1  0  0  0  0
 47 91  1  0  0  0  0
 47 92  1  0  0  0  0
 47 93  1  0  0  0  0
 48 94  1  0  0  0  0
 48 95  1  0  0  0  0
 48 96  1  0  0  0  0
 49 97  1  0  0  0  0
 49 98  1  0  0  0  0
 49 99  1  0  0  0  0
  1100  1  0  0  0  0
M  CHG  1   1   1
M  END
$$$$
Piperacillin_p
  Mrv2011 02162114053D          

 62 65  0  0  1  0            999 V2000
   -2.7458    1.1497    2.7367 S   0  0  0  0  0  0  0  0  0  0  0  0
    0.7795    0.2535    0.3536 O   0  0  0  0  0  0  0  0  0  0  0  0
   -3.2889    2.2762   -1.1139 O   0  5  0  0  0  0  0  0  0  0  0  0
   -1.5366    3.6226   -1.4032 O   0  0  0  0  0  0  0  0  0  0  0  0
    0.0536   -2.8098    3.9893 O   0  0  0  0  0  0  0  0  0  0  0  0
    0.5528   -5.8939    0.3318 O   0  0  0  0  0  0  0  0  0  0  0  0
    0.9463   -2.2003   -1.3858 O   0  0  0  0  0  0  0  0  0  0  0  0
    1.5176   -2.0208   -3.8948 O   0  0  0  0  0  0  0  0  0  0  0  0
   -1.4355    1.0123    0.7328 N   0  0  0  0  0  0  0  0  0  0  0  0
   -0.7332   -1.4094    2.4854 N   0  0  0  0  0  0  0  0  0  0  0  0
    0.2454   -3.7232    0.7558 N   0  0  0  0  0  0  0  0  0  0  0  0
    1.2694   -4.4948   -1.3382 N   0  0  0  0  0  0  0  0  0  0  0  0
    2.3238   -4.1595   -3.9930 N   0  0  0  0  0  0  0  0  0  0  0  0
   -2.3732    0.1163    1.2842 C   0  0  1  0  0  0  0  0  0  0  0  0
   -2.3919    2.7862    1.9640 C   0  0  1  0  0  0  0  0  0  0  0  0
   -1.5663    2.4284    0.6605 C   0  0  2  0  0  0  0  0  0  0  0  0
   -1.2235   -0.9395    1.2289 C   0  0  1  0  0  0  0  0  0  0  0  0
   -0.4266    0.1491    0.6697 C   0  0  0  0  0  0  0  0  0  0  0  0
   -3.7590    3.4936    1.7202 C   0  0  0  0  0  0  0  0  0  0  0  0
   -1.5430    3.6191    2.9722 C   0  0  0  0  0  0  0  0  0  0  0  0
   -2.1318    2.8097   -0.6589 C   0  0  0  0  0  0  0  0  0  0  0  0
   -0.3929   -2.6870    2.8250 C   0  0  0  0  0  0  0  0  0  0  0  0
   -0.4900   -3.9129    1.9775 C   0  0  1  0  0  0  0  0  0  0  0  0
   -1.9159   -4.3397    1.7955 C   0  0  0  0  0  0  0  0  0  0  0  0
    0.6970   -4.7147   -0.0796 C   0  0  0  0  0  0  0  0  0  0  0  0
   -2.6166   -4.8779    2.9053 C   0  0  0  0  0  0  0  0  0  0  0  0
   -2.6107   -4.2509    0.5595 C   0  0  0  0  0  0  0  0  0  0  0  0
    1.7641   -5.6526   -2.0704 C   0  0  1  0  0  0  0  0  0  0  0  0
    2.7039   -5.3419   -3.2636 C   0  0  2  0  0  0  0  0  0  0  0  0
    1.3186   -3.2508   -1.9603 C   0  0  0  0  0  0  0  0  0  0  0  0
   -3.9547   -5.2978    2.7905 C   0  0  0  0  0  0  0  0  0  0  0  0
   -3.9539   -4.6571    0.4451 C   0  0  0  0  0  0  0  0  0  0  0  0
    1.7324   -3.1129   -3.3128 C   0  0  0  0  0  0  0  0  0  0  0  0
    2.5844   -4.0894   -5.4166 C   0  0  1  0  0  0  0  0  0  0  0  0
   -4.6267   -5.1783    1.5624 C   0  0  0  0  0  0  0  0  0  0  0  0
    1.3122   -4.3969   -6.2366 C   0  0  0  0  0  0  0  0  0  0  0  0
   -0.6136   -0.7373    3.1770 H   0  0  0  0  0  0  0  0  0  0  0  0
    0.4000   -2.8077    0.4934 H   0  0  0  0  0  0  0  0  0  0  0  0
   -3.2188   -0.0541    0.6122 H   0  0  0  0  0  0  0  0  0  0  0  0
   -0.5631    2.8652    0.7192 H   0  0  0  0  0  0  0  0  0  0  0  0
   -1.4084   -1.7024    0.4758 H   0  0  0  0  0  0  0  0  0  0  0  0
   -4.2624    3.7063    2.6664 H   0  0  0  0  0  0  0  0  0  0  0  0
   -3.6097    4.4355    1.1873 H   0  0  0  0  0  0  0  0  0  0  0  0
   -4.4243    2.8616    1.1298 H   0  0  0  0  0  0  0  0  0  0  0  0
   -2.0831    3.7698    3.9099 H   0  0  0  0  0  0  0  0  0  0  0  0
   -1.3078    4.5977    2.5473 H   0  0  0  0  0  0  0  0  0  0  0  0
   -0.6020    3.1126    3.1986 H   0  0  0  0  0  0  0  0  0  0  0  0
    0.0138   -4.7250    2.5160 H   0  0  0  0  0  0  0  0  0  0  0  0
   -2.1518   -4.9725    3.8122 H   0  0  0  0  0  0  0  0  0  0  0  0
   -2.1507   -3.8850   -0.2752 H   0  0  0  0  0  0  0  0  0  0  0  0
    2.3312   -6.3089   -1.4014 H   0  0  0  0  0  0  0  0  0  0  0  0
    0.8987   -6.2123   -2.4397 H   0  0  0  0  0  0  0  0  0  0  0  0
    3.7195   -5.1877   -2.8873 H   0  0  0  0  0  0  0  0  0  0  0  0
    2.7202   -6.2248   -3.9103 H   0  0  0  0  0  0  0  0  0  0  0  0
   -4.4389   -5.6868    3.6035 H   0  0  0  0  0  0  0  0  0  0  0  0
   -4.4427   -4.5701   -0.4512 H   0  0  0  0  0  0  0  0  0  0  0  0
    2.9562   -3.0984   -5.6893 H   0  0  0  0  0  0  0  0  0  0  0  0
    3.3657   -4.8003   -5.7073 H   0  0  0  0  0  0  0  0  0  0  0  0
   -5.6044   -5.4707    1.4810 H   0  0  0  0  0  0  0  0  0  0  0  0
    1.5394   -4.3613   -7.3032 H   0  0  0  0  0  0  0  0  0  0  0  0
    0.9343   -5.3893   -5.9899 H   0  0  0  0  0  0  0  0  0  0  0  0
    0.5377   -3.6584   -6.0246 H   0  0  0  0  0  0  0  0  0  0  0  0
 14  1  1  0  0  0  0
  1 15  1  0  0  0  0
  2 18  2  0  0  0  0
  3 21  1  0  0  0  0
  4 21  2  0  0  0  0
  5 22  2  0  0  0  0
  6 25  2  0  0  0  0
  7 30  2  0  0  0  0
  8 33  2  0  0  0  0
  9 14  1  0  0  0  0
  9 16  1  0  0  0  0
  9 18  1  0  0  0  0
 17 10  1  0  0  0  0
 10 22  1  0  0  0  0
 23 11  1  0  0  0  0
 11 25  1  0  0  0  0
 12 25  1  0  0  0  0
 12 28  1  0  0  0  0
 12 30  1  0  0  0  0
 13 29  1  0  0  0  0
 13 33  1  0  0  0  0
 13 34  1  0  0  0  0
 14 17  1  0  0  0  0
 15 16  1  0  0  0  0
 15 19  1  0  0  0  0
 15 20  1  0  0  0  0
 16 21  1  0  0  0  0
 17 18  1  0  0  0  0
 22 23  1  0  0  0  0
 23 24  1  0  0  0  0
 24 26  2  0  0  0  0
 24 27  1  0  0  0  0
 26 31  1  0  0  0  0
 27 32  2  0  0  0  0
 28 29  1  0  0  0  0
 30 33  1  0  0  0  0
 31 35  2  0  0  0  0
 32 35  1  0  0  0  0
 34 36  1  0  0  0  0
 10 37  1  0  0  0  0
 11 38  1  0  0  0  0
 14 39  1  0  0  0  0
 16 40  1  0  0  0  0
 17 41  1  0  0  0  0
 19 42  1  0  0  0  0
 19 43  1  0  0  0  0
 19 44  1  0  0  0  0
 20 45  1  0  0  0  0
 20 46  1  0  0  0  0
 20 47  1  0  0  0  0
 23 48  1  0  0  0  0
 26 49  1  0  0  0  0
 27 50  1  0  0  0  0
 28 51  1  0  0  0  0
 28 52  1  0  0  0  0
 29 53  1  0  0  0  0
 29 54  1  0  0  0  0
 31 55  1  0  0  0  0
 32 56  1  0  0  0  0
 34 57  1  0  0  0  0
 34 58  1  0  0  0  0
 35 59  1  0  0  0  0
 36 60  1  0  0  0  0
 36 61  1  0  0  0  0
 36 62  1  0  0  0  0
M  CHG  1   3  -1
M  END
$$$$
Pentobarbital_p
  Mrv2011 02162114023D          

 33 33  0  0  1  0            999 V2000
   -0.3120   -1.0190    4.2471 C   0  0  0  0  0  0  0  0  0  0  0  0
    0.0692   -0.6157    2.8042 C   0  0  2  0  0  0  0  0  0  0  0  0
   -0.2397    0.8763    2.5003 C   0  0  1  0  0  0  0  0  0  0  0  0
    0.3164    1.4775    1.1518 C   0  0  2  0  0  0  0  0  0  0  0  0
    0.3846    3.0336    1.3307 C   0  0  0  0  0  0  0  0  0  0  0  0
   -0.4063    0.9808   -0.1873 C   0  0  2  0  0  0  0  0  0  0  0  0
   -1.8965    1.1911   -0.1035 C   0  0  0  0  0  0  0  0  0  0  0  0
   -2.3893    2.3366    0.0150 O   0  0  0  0  0  0  0  0  0  0  0  0
   -2.7865    0.1658   -0.1756 N   0  0  0  0  0  0  0  0  0  0  0  0
   -2.3934   -1.1180   -0.3460 C   0  0  0  0  0  0  0  0  0  0  0  0
   -3.2485   -2.0274   -0.4036 O   0  0  0  0  0  0  0  0  0  0  0  0
   -1.0834   -1.4289   -0.4586 N   0  5  0  0  0  0  0  0  0  0  0  0
   -0.1106   -0.4845   -0.3886 C   0  0  0  0  0  0  0  0  0  0  0  0
    1.0677   -0.8932   -0.5090 O   0  0  0  0  0  0  0  0  0  0  0  0
    0.1260    1.7237   -1.4768 C   0  0  2  0  0  0  0  0  0  0  0  0
   -0.3853    1.2171   -2.8546 C   0  0  0  0  0  0  0  0  0  0  0  0
   -1.3731   -0.8365    4.4242 H   0  0  0  0  0  0  0  0  0  0  0  0
    0.2713   -0.4480    4.9712 H   0  0  0  0  0  0  0  0  0  0  0  0
   -0.1118   -2.0798    4.4004 H   0  0  0  0  0  0  0  0  0  0  0  0
   -0.4932   -1.2604    2.1328 H   0  0  0  0  0  0  0  0  0  0  0  0
    1.1352   -0.8055    2.6588 H   0  0  0  0  0  0  0  0  0  0  0  0
   -1.3196    1.0359    2.5537 H   0  0  0  0  0  0  0  0  0  0  0  0
    0.1968    1.4333    3.3339 H   0  0  0  0  0  0  0  0  0  0  0  0
    1.3674    1.1757    1.0858 H   0  0  0  0  0  0  0  0  0  0  0  0
   -0.6087    3.4583    1.4877 H   0  0  0  0  0  0  0  0  0  0  0  0
    0.9991    3.2883    2.1994 H   0  0  0  0  0  0  0  0  0  0  0  0
    0.8491    3.5272    0.4778 H   0  0  0  0  0  0  0  0  0  0  0  0
   -3.7337    0.3595   -0.1108 H   0  0  0  0  0  0  0  0  0  0  0  0
    1.2187    1.6698   -1.4948 H   0  0  0  0  0  0  0  0  0  0  0  0
   -0.1400    2.7825   -1.4305 H   0  0  0  0  0  0  0  0  0  0  0  0
    0.0598    1.8150   -3.6523 H   0  0  0  0  0  0  0  0  0  0  0  0
   -0.1077    0.1751   -3.0224 H   0  0  0  0  0  0  0  0  0  0  0  0
   -1.4701    1.3105   -2.9227 H   0  0  0  0  0  0  0  0  0  0  0  0
  1  2  1  0  0  0  0
  2  3  1  0  0  0  0
  4  3  1  0  0  0  0
  4  5  1  0  0  0  0
  4  6  1  0  0  0  0
  6  7  1  0  0  0  0
  6 13  1  0  0  0  0
  6 15  1  0  0  0  0
  7  8  2  0  0  0  0
  7  9  1  0  0  0  0
  9 10  1  0  0  0  0
 10 11  2  0  0  0  0
 10 12  1  0  0  0  0
 12 13  1  0  0  0  0
 13 14  2  0  0  0  0
 15 16  1  0  0  0  0
  1 17  1  0  0  0  0
  1 18  1  0  0  0  0
  1 19  1  0  0  0  0
  2 20  1  0  0  0  0
  2 21  1  0  0  0  0
  3 22  1  0  0  0  0
  3 23  1  0  0  0  0
  4 24  1  0  0  0  0
  5 25  1  0  0  0  0
  5 26  1  0  0  0  0
  5 27  1  0  0  0  0
  9 28  1  0  0  0  0
 15 29  1  0  0  0  0
 15 30  1  0  0  0  0
 16 31  1  0  0  0  0
 16 32  1  0  0  0  0
 16 33  1  0  0  0  0
M  CHG  1  12  -1
M  END
$$$$
Paroxetine_p
  Mrv2011 02162114003D          

 45 48  0  0  1  0            999 V2000
   -6.5977   -1.6399   -1.3760 F   0  0  0  0  0  0  0  0  0  0  0  0
   -0.9090   -6.4874   -1.9245 O   0  0  0  0  0  0  0  0  0  0  0  0
   -0.8827  -10.1483    1.2738 O   0  0  0  0  0  0  0  0  0  0  0  0
   -3.0210  -10.9325    0.5505 O   0  0  0  0  0  0  0  0  0  0  0  0
    1.6704   -3.0015   -2.2310 N   0  3  1  0  0  0  0  0  0  0  0  0
   -1.0531   -2.6996   -1.1589 C   0  0  1  0  0  0  0  0  0  0  0  0
   -0.6320   -4.0092   -1.9197 C   0  0  1  0  0  0  0  0  0  0  0  0
   -0.2075   -1.4789   -1.6327 C   0  0  2  0  0  0  0  0  0  0  0  0
    0.9149   -4.2098   -1.8183 C   0  0  2  0  0  0  0  0  0  0  0  0
    1.3067   -1.7718   -1.4956 C   0  0  2  0  0  0  0  0  0  0  0  0
   -1.4106   -5.2482   -1.3852 C   0  0  1  0  0  0  0  0  0  0  0  0
   -2.5263   -2.4141   -1.2261 C   0  0  0  0  0  0  0  0  0  0  0  0
   -3.1708   -2.1429   -2.4575 C   0  0  0  0  0  0  0  0  0  0  0  0
   -3.3162   -2.4312   -0.0488 C   0  0  0  0  0  0  0  0  0  0  0  0
   -4.5534   -1.8871   -2.5084 C   0  0  0  0  0  0  0  0  0  0  0  0
   -4.6966   -2.1643   -0.0999 C   0  0  0  0  0  0  0  0  0  0  0  0
   -1.4824   -7.5844   -1.3368 C   0  0  0  0  0  0  0  0  0  0  0  0
   -5.3187   -1.8890   -1.3290 C   0  0  0  0  0  0  0  0  0  0  0  0
   -0.7933   -8.2603   -0.3047 C   0  0  0  0  0  0  0  0  0  0  0  0
   -2.7519   -8.0479   -1.7560 C   0  0  0  0  0  0  0  0  0  0  0  0
   -1.3892   -9.3868    0.2872 C   0  0  0  0  0  0  0  0  0  0  0  0
   -2.6317   -9.8398   -0.1314 C   0  0  0  0  0  0  0  0  0  0  0  0
   -3.3350   -9.1809   -1.1539 C   0  0  0  0  0  0  0  0  0  0  0  0
   -1.9607  -11.0734    1.5157 C   0  0  2  0  0  0  0  0  0  0  0  0
   -0.7811   -2.8595   -0.1063 H   0  0  0  0  0  0  0  0  0  0  0  0
   -0.8735   -3.8984   -2.9825 H   0  0  0  0  0  0  0  0  0  0  0  0
   -0.4539   -0.6013   -1.0306 H   0  0  0  0  0  0  0  0  0  0  0  0
   -0.4256   -1.2420   -2.6770 H   0  0  0  0  0  0  0  0  0  0  0  0
    1.1989   -4.4849   -0.7978 H   0  0  0  0  0  0  0  0  0  0  0  0
    1.2265   -5.0238   -2.4777 H   0  0  0  0  0  0  0  0  0  0  0  0
    1.8771   -0.9366   -1.9062 H   0  0  0  0  0  0  0  0  0  0  0  0
    1.5778   -1.8807   -0.4419 H   0  0  0  0  0  0  0  0  0  0  0  0
   -2.4637   -5.1419   -1.6649 H   0  0  0  0  0  0  0  0  0  0  0  0
   -1.3394   -5.2535   -0.2924 H   0  0  0  0  0  0  0  0  0  0  0  0
    2.6670   -3.1785   -2.0872 H   0  0  0  0  0  0  0  0  0  0  0  0
   -2.6351   -2.1263   -3.3287 H   0  0  0  0  0  0  0  0  0  0  0  0
   -2.8946   -2.6404    0.8609 H   0  0  0  0  0  0  0  0  0  0  0  0
   -4.9965   -1.6944   -3.4084 H   0  0  0  0  0  0  0  0  0  0  0  0
   -5.2493   -2.1725    0.7591 H   0  0  0  0  0  0  0  0  0  0  0  0
    0.1223   -7.9373    0.0139 H   0  0  0  0  0  0  0  0  0  0  0  0
   -3.2528   -7.5555   -2.4982 H   0  0  0  0  0  0  0  0  0  0  0  0
   -4.2514   -9.5192   -1.4550 H   0  0  0  0  0  0  0  0  0  0  0  0
   -2.3653  -10.8992    2.5161 H   0  0  0  0  0  0  0  0  0  0  0  0
   -1.5736  -12.0933    1.4763 H   0  0  0  0  0  0  0  0  0  0  0  0
    1.5215   -2.8359   -3.2301 H   0  0  0  0  0  0  0  0  0  0  0  0
  1 18  1  0  0  0  0
  2 11  1  0  0  0  0
  2 17  1  0  0  0  0
  3 21  1  0  0  0  0
  3 24  1  0  0  0  0
  4 22  1  0  0  0  0
  4 24  1  0  0  0  0
  5  9  1  0  0  0  0
  5 10  1  0  0  0  0
  6  7  1  0  0  0  0
  6  8  1  0  0  0  0
  6 12  1  0  0  0  0
  7  9  1  0  0  0  0
  7 11  1  0  0  0  0
  8 10  1  0  0  0  0
 12 13  2  0  0  0  0
 12 14  1  0  0  0  0
 13 15  1  0  0  0  0
 14 16  2  0  0  0  0
 15 18  2  0  0  0  0
 16 18  1  0  0  0  0
 17 19  2  0  0  0  0
 17 20  1  0  0  0  0
 19 21  1  0  0  0  0
 20 23  2  0  0  0  0
 21 22  2  0  0  0  0
 22 23  1  0  0  0  0
  6 25  1  0  0  0  0
  7 26  1  0  0  0  0
  8 27  1  0  0  0  0
  8 28  1  0  0  0  0
  9 29  1  0  0  0  0
  9 30  1  0  0  0  0
 10 31  1  0  0  0  0
 10 32  1  0  0  0  0
 11 33  1  0  0  0  0
 11 34  1  0  0  0  0
  5 35  1  0  0  0  0
 13 36  1  0  0  0  0
 14 37  1  0  0  0  0
 15 38  1  0  0  0  0
 16 39  1  0  0  0  0
 19 40  1  0  0  0  0
 20 41  1  0  0  0  0
 23 42  1  0  0  0  0
 24 43  1  0  0  0  0
 24 44  1  0  0  0  0
  5 45  1  0  0  0  0
M  CHG  1   5   1
M  END
$$$$



