amiodarone
  MOE2024           3D

 60 62  0  0  0  0  0  0  0  0999 V2000
    6.6030   -0.4730   -3.3740 I   0  0  0  0  0  0  0  0  0  0  0  0
    5.5270    2.6630    1.8120 I   0  0  0  0  0  0  0  0  0  0  0  0
   -1.0420    0.4200    1.1040 O   0  0  0  0  0  0  0  0  0  0  0  0
    7.0870    1.4990   -0.8110 O   0  0  0  0  0  0  0  0  0  0  0  0
    1.8140   -1.9740   -0.8650 O   0  0  0  0  0  0  0  0  0  0  0  0
   10.5610    0.8630    0.2510 N   0  0  0  0  0  0  0  0  0  0  0  0
   -0.5150   -1.9420    1.3240 C   0  0  0  0  0  0  0  0  0  0  0  0
   -0.2050   -0.5500    0.7980 C   0  0  0  0  0  0  0  0  0  0  0  0
    0.8320   -0.1010    0.0400 C   0  0  0  0  0  0  0  0  0  0  0  0
   -1.7290   -2.5360    0.6010 C   0  0  0  0  0  0  0  0  0  0  0  0
    0.5750    1.2860   -0.1480 C   0  0  0  0  0  0  0  0  0  0  0  0
   -0.5940    1.5390    0.5470 C   0  0  0  0  0  0  0  0  0  0  0  0
    9.4320    1.5920   -0.3600 C   0  0  0  0  0  0  0  0  0  0  0  0
   -2.0570   -3.9450    1.1110 C   0  0  0  0  0  0  0  0  0  0  0  0
    1.9580   -0.8290   -0.4870 C   0  0  0  0  0  0  0  0  0  0  0  0
   11.1000   -0.1520   -0.6650 C   0  0  0  0  0  0  0  0  0  0  0  0
   11.6070    1.7820    0.7200 C   0  0  0  0  0  0  0  0  0  0  0  0
    8.1400    0.7970   -0.1820 C   0  0  0  0  0  0  0  0  0  0  0  0
    1.1880    2.3400   -0.8330 C   0  0  0  0  0  0  0  0  0  0  0  0
    3.2710   -0.2220   -0.5630 C   0  0  0  0  0  0  0  0  0  0  0  0
   -1.1680    2.8000    0.6080 C   0  0  0  0  0  0  0  0  0  0  0  0
   -3.2710   -4.5250    0.3810 C   0  0  0  0  0  0  0  0  0  0  0  0
   11.6980   -1.2990    0.1440 C   0  0  0  0  0  0  0  0  0  0  0  0
   11.2260    2.3270    2.0950 C   0  0  0  0  0  0  0  0  0  0  0  0
    5.8590    0.9440   -0.7320 C   0  0  0  0  0  0  0  0  0  0  0  0
    0.6290    3.6010   -0.7800 C   0  0  0  0  0  0  0  0  0  0  0  0
   -0.5450    3.8350   -0.0600 C   0  0  0  0  0  0  0  0  0  0  0  0
    4.1390   -0.5300   -1.6150 C   0  0  0  0  0  0  0  0  0  0  0  0
    3.7230    0.6850    0.4020 C   0  0  0  0  0  0  0  0  0  0  0  0
    5.3920    0.0500   -1.6900 C   0  0  0  0  0  0  0  0  0  0  0  0
    4.9800    1.2520    0.3010 C   0  0  0  0  0  0  0  0  0  0  0  0
   -0.7110   -1.8790    2.3800 H   0  0  0  0  0  0  0  0  0  0  0  0
    0.3350   -2.5840    1.1820 H   0  0  0  0  0  0  0  0  0  0  0  0
   -2.5780   -1.8910    0.7490 H   0  0  0  0  0  0  0  0  0  0  0  0
   -1.5200   -2.5740   -0.4550 H   0  0  0  0  0  0  0  0  0  0  0  0
    9.2980    2.5440    0.1230 H   0  0  0  0  0  0  0  0  0  0  0  0
    9.6230    1.7630   -1.4050 H   0  0  0  0  0  0  0  0  0  0  0  0
   -2.2630   -3.9100    2.1680 H   0  0  0  0  0  0  0  0  0  0  0  0
   -1.2090   -4.5920    0.9560 H   0  0  0  0  0  0  0  0  0  0  0  0
   10.3130   -0.5530   -1.2810 H   0  0  0  0  0  0  0  0  0  0  0  0
   11.8400    0.2840   -1.3160 H   0  0  0  0  0  0  0  0  0  0  0  0
   12.5430    1.2590    0.8180 H   0  0  0  0  0  0  0  0  0  0  0  0
   11.7470    2.5850    0.0150 H   0  0  0  0  0  0  0  0  0  0  0  0
    8.2210   -0.1740   -0.6330 H   0  0  0  0  0  0  0  0  0  0  0  0
    7.9130    0.6960    0.8640 H   0  0  0  0  0  0  0  0  0  0  0  0
    2.0850    2.1710   -1.4000 H   0  0  0  0  0  0  0  0  0  0  0  0
   -2.0750    2.9460    1.1660 H   0  0  0  0  0  0  0  0  0  0  0  0
   -4.1360   -3.9050    0.5380 H   0  0  0  0  0  0  0  0  0  0  0  0
   -3.0770   -4.5890   -0.6760 H   0  0  0  0  0  0  0  0  0  0  0  0
   -3.4850   -5.5130    0.7500 H   0  0  0  0  0  0  0  0  0  0  0  0
   12.0370   -2.0720   -0.5210 H   0  0  0  0  0  0  0  0  0  0  0  0
   12.5340   -0.9660    0.7300 H   0  0  0  0  0  0  0  0  0  0  0  0
   10.9500   -1.7130    0.7970 H   0  0  0  0  0  0  0  0  0  0  0  0
   11.0730    1.5120    2.7790 H   0  0  0  0  0  0  0  0  0  0  0  0
   12.0200    2.9440    2.4710 H   0  0  0  0  0  0  0  0  0  0  0  0
   10.3320    2.9200    2.0450 H   0  0  0  0  0  0  0  0  0  0  0  0
    1.0950    4.4200   -1.3000 H   0  0  0  0  0  0  0  0  0  0  0  0
   -0.9630    4.8270   -0.0320 H   0  0  0  0  0  0  0  0  0  0  0  0
    3.8220   -1.2270   -2.3730 H   0  0  0  0  0  0  0  0  0  0  0  0
    3.0890    0.9490    1.2310 H   0  0  0  0  0  0  0  0  0  0  0  0
  1 30  1  0  0  0  0
  2 31  1  0  0  0  0
  3  8  1  0  0  0  0
  3 12  1  0  0  0  0
  4 18  1  0  0  0  0
  4 25  1  0  0  0  0
  5 15  2  0  0  0  0
  6 13  1  0  0  0  0
  6 16  1  0  0  0  0
  6 17  1  0  0  0  0
  7  8  1  0  0  0  0
  7 10  1  0  0  0  0
  7 32  1  0  0  0  0
  7 33  1  0  0  0  0
  8  9  2  0  0  0  0
  9 11  1  0  0  0  0
  9 15  1  0  0  0  0
 10 14  1  0  0  0  0
 10 34  1  0  0  0  0
 10 35  1  0  0  0  0
 11 12  2  0  0  0  0
 11 19  1  0  0  0  0
 12 21  1  0  0  0  0
 13 18  1  0  0  0  0
 13 36  1  0  0  0  0
 13 37  1  0  0  0  0
 14 22  1  0  0  0  0
 14 38  1  0  0  0  0
 14 39  1  0  0  0  0
 15 20  1  0  0  0  0
 16 23  1  0  0  0  0
 16 40  1  0  0  0  0
 16 41  1  0  0  0  0
 17 24  1  0  0  0  0
 17 42  1  0  0  0  0
 17 43  1  0  0  0  0
 18 44  1  0  0  0  0
 18 45  1  0  0  0  0
 19 26  2  0  0  0  0
 19 46  1  0  0  0  0
 20 28  2  0  0  0  0
 20 29  1  0  0  0  0
 21 27  2  0  0  0  0
 21 47  1  0  0  0  0
 22 48  1  0  0  0  0
 22 49  1  0  0  0  0
 22 50  1  0  0  0  0
 23 51  1  0  0  0  0
 23 52  1  0  0  0  0
 23 53  1  0  0  0  0
 24 54  1  0  0  0  0
 24 55  1  0  0  0  0
 24 56  1  0  0  0  0
 25 30  2  0  0  0  0
 25 31  1  0  0  0  0
 26 27  1  0  0  0  0
 26 57  1  0  0  0  0
 27 58  1  0  0  0  0
 28 30  1  0  0  0  0
 28 59  1  0  0  0  0
 29 31  2  0  0  0  0
 29 60  1  0  0  0  0
M  END
$$$$
astemizole
  MOE2024           3D

 65 69  0  0  0  0  0  0  0  0999 V2000
    2.0120   -0.5060    0.7660 F   0  0  0  0  0  0  0  0  0  0  0  0
   20.4320   -1.7050   -0.3460 O   0  0  0  0  0  0  0  0  0  0  0  0
   13.1590    0.8980    0.6170 N   0  0  0  0  0  0  0  0  0  0  0  0
    9.1630    2.1490    1.0210 N   0  0  0  0  0  0  0  0  0  0  0  0
    7.3970    2.3840   -0.6230 N   0  0  0  0  0  0  0  0  0  0  0  0
    8.2380    4.1780    0.4020 N   0  0  0  0  0  0  0  0  0  0  0  0
   10.3870    1.6740    0.3590 C   0  0  0  0  0  0  0  0  0  0  0  0
   10.7920    0.3320    0.9600 C   0  0  0  0  0  0  0  0  0  0  0  0
   11.4970    2.7030    0.5540 C   0  0  0  0  0  0  0  0  0  0  0  0
   12.1300   -0.1280    0.3790 C   0  0  0  0  0  0  0  0  0  0  0  0
   12.8120    2.1780   -0.0180 C   0  0  0  0  0  0  0  0  0  0  0  0
   14.4940    0.4530    0.1810 C   0  0  0  0  0  0  0  0  0  0  0  0
   15.1210   -0.5030    1.1980 C   0  0  0  0  0  0  0  0  0  0  0  0
    8.2840    2.8950    0.2810 C   0  0  0  0  0  0  0  0  0  0  0  0
   16.5400   -0.8510    0.7770 C   0  0  0  0  0  0  0  0  0  0  0  0
    6.7310    3.4610   -1.1260 C   0  0  0  0  0  0  0  0  0  0  0  0
    7.1320    0.9580   -0.8950 C   0  0  0  0  0  0  0  0  0  0  0  0
    7.2710    4.5560   -0.4770 C   0  0  0  0  0  0  0  0  0  0  0  0
    5.7110    3.6080   -2.0670 C   0  0  0  0  0  0  0  0  0  0  0  0
    5.7320    0.5570   -0.4460 C   0  0  0  0  0  0  0  0  0  0  0  0
   17.6030   -0.0640    1.1910 C   0  0  0  0  0  0  0  0  0  0  0  0
   16.7830   -1.9510   -0.0310 C   0  0  0  0  0  0  0  0  0  0  0  0
    6.8030    5.8350   -0.7680 C   0  0  0  0  0  0  0  0  0  0  0  0
    5.2540    4.8790   -2.3480 C   0  0  0  0  0  0  0  0  0  0  0  0
    5.8000    5.9920   -1.7010 C   0  0  0  0  0  0  0  0  0  0  0  0
   18.8930   -0.3740    0.8000 C   0  0  0  0  0  0  0  0  0  0  0  0
   18.0730   -2.2640   -0.4230 C   0  0  0  0  0  0  0  0  0  0  0  0
    4.8420   -0.0140   -1.3490 C   0  0  0  0  0  0  0  0  0  0  0  0
    5.3440    0.7610    0.8740 C   0  0  0  0  0  0  0  0  0  0  0  0
   19.1390   -1.4720   -0.0070 C   0  0  0  0  0  0  0  0  0  0  0  0
    3.5700   -0.3790   -0.9400 C   0  0  0  0  0  0  0  0  0  0  0  0
    4.0750    0.4010    1.2940 C   0  0  0  0  0  0  0  0  0  0  0  0
    3.2110   -0.1630    0.3760 C   0  0  0  0  0  0  0  0  0  0  0  0
   20.7900   -2.8010   -1.1570 C   0  0  0  0  0  0  0  0  0  0  0  0
   10.2050    1.5510   -0.6960 H   0  0  0  0  0  0  0  0  0  0  0  0
   10.8920    0.4230    2.0260 H   0  0  0  0  0  0  0  0  0  0  0  0
   10.0380   -0.4020    0.7480 H   0  0  0  0  0  0  0  0  0  0  0  0
   11.2300    3.6180    0.0570 H   0  0  0  0  0  0  0  0  0  0  0  0
   11.6350    2.9080    1.6010 H   0  0  0  0  0  0  0  0  0  0  0  0
   12.0320   -0.3100   -0.6780 H   0  0  0  0  0  0  0  0  0  0  0  0
   12.4110   -1.0500    0.8570 H   0  0  0  0  0  0  0  0  0  0  0  0
   12.7290    2.0490   -1.0850 H   0  0  0  0  0  0  0  0  0  0  0  0
   13.5870    2.9000    0.1780 H   0  0  0  0  0  0  0  0  0  0  0  0
   14.4370   -0.0150   -0.7880 H   0  0  0  0  0  0  0  0  0  0  0  0
   15.1460    1.3070    0.0960 H   0  0  0  0  0  0  0  0  0  0  0  0
    9.4320    2.6770    1.8560 H   0  0  0  0  0  0  0  0  0  0  0  0
   14.5440   -1.4050    1.2740 H   0  0  0  0  0  0  0  0  0  0  0  0
   15.1360   -0.0310    2.1650 H   0  0  0  0  0  0  0  0  0  0  0  0
    7.8540    0.3600   -0.3690 H   0  0  0  0  0  0  0  0  0  0  0  0
    7.2530    0.7880   -1.9480 H   0  0  0  0  0  0  0  0  0  0  0  0
    5.2910    2.7480   -2.5550 H   0  0  0  0  0  0  0  0  0  0  0  0
   17.4300    0.7940    1.8180 H   0  0  0  0  0  0  0  0  0  0  0  0
   15.9660   -2.5700   -0.3580 H   0  0  0  0  0  0  0  0  0  0  0  0
    7.2390    6.6710   -0.2540 H   0  0  0  0  0  0  0  0  0  0  0  0
    4.4690    5.0230   -3.0690 H   0  0  0  0  0  0  0  0  0  0  0  0
    5.4280    6.9740   -1.9360 H   0  0  0  0  0  0  0  0  0  0  0  0
   19.7190    0.2350    1.1200 H   0  0  0  0  0  0  0  0  0  0  0  0
   18.2270   -3.1220   -1.0480 H   0  0  0  0  0  0  0  0  0  0  0  0
    5.1310   -0.1780   -2.3730 H   0  0  0  0  0  0  0  0  0  0  0  0
    6.0290    1.2060    1.5780 H   0  0  0  0  0  0  0  0  0  0  0  0
    2.8680   -0.8210   -1.6230 H   0  0  0  0  0  0  0  0  0  0  0  0
    3.7590    0.5560    2.3100 H   0  0  0  0  0  0  0  0  0  0  0  0
   20.3040   -2.7020   -2.1110 H   0  0  0  0  0  0  0  0  0  0  0  0
   20.4940   -3.7100   -0.6640 H   0  0  0  0  0  0  0  0  0  0  0  0
   21.8570   -2.7870   -1.2860 H   0  0  0  0  0  0  0  0  0  0  0  0
  1 33  1  0  0  0  0
  2 30  1  0  0  0  0
  2 34  1  0  0  0  0
  3 10  1  0  0  0  0
  3 11  1  0  0  0  0
  3 12  1  0  0  0  0
  4  7  1  0  0  0  0
  4 14  1  0  0  0  0
  4 46  1  0  0  0  0
  5 14  1  0  0  0  0
  5 16  1  0  0  0  0
  5 17  1  0  0  0  0
  6 14  2  0  0  0  0
  6 18  1  0  0  0  0
  7  8  1  0  0  0  0
  7  9  1  0  0  0  0
  7 35  1  0  0  0  0
  8 10  1  0  0  0  0
  8 36  1  0  0  0  0
  8 37  1  0  0  0  0
  9 11  1  0  0  0  0
  9 38  1  0  0  0  0
  9 39  1  0  0  0  0
 10 40  1  0  0  0  0
 10 41  1  0  0  0  0
 11 42  1  0  0  0  0
 11 43  1  0  0  0  0
 12 13  1  0  0  0  0
 12 44  1  0  0  0  0
 12 45  1  0  0  0  0
 13 15  1  0  0  0  0
 13 47  1  0  0  0  0
 13 48  1  0  0  0  0
 15 21  2  0  0  0  0
 15 22  1  0  0  0  0
 16 18  2  0  0  0  0
 16 19  1  0  0  0  0
 17 20  1  0  0  0  0
 17 49  1  0  0  0  0
 17 50  1  0  0  0  0
 18 23  1  0  0  0  0
 19 24  2  0  0  0  0
 19 51  1  0  0  0  0
 20 28  2  0  0  0  0
 20 29  1  0  0  0  0
 21 26  1  0  0  0  0
 21 52  1  0  0  0  0
 22 27  2  0  0  0  0
 22 53  1  0  0  0  0
 23 25  2  0  0  0  0
 23 54  1  0  0  0  0
 24 25  1  0  0  0  0
 24 55  1  0  0  0  0
 25 56  1  0  0  0  0
 26 30  2  0  0  0  0
 26 57  1  0  0  0  0
 27 30  1  0  0  0  0
 27 58  1  0  0  0  0
 28 31  1  0  0  0  0
 28 59  1  0  0  0  0
 29 32  2  0  0  0  0
 29 60  1  0  0  0  0
 31 33  2  0  0  0  0
 31 61  1  0  0  0  0
 32 33  1  0  0  0  0
 32 62  1  0  0  0  0
 34 63  1  0  0  0  0
 34 64  1  0  0  0  0
 34 65  1  0  0  0  0
M  END
$$$$
bepridil
  MOE2024           3D

 61 63  0  0  1  0  0  0  0  0999 V2000
    5.0650    0.7560    0.6880 O   0  0  0  0  0  0  0  0  0  0  0  0
    5.3470   -1.2850   -1.6450 N   0  0  0  0  0  0  0  0  0  0  0  0
    1.6330   -1.1280   -0.7180 N   0  0  0  0  0  0  0  0  0  0  0  0
    4.1710   -1.0140   -0.7570 C   0  0  2  0  0  0  0  0  0  0  0  0
    5.5250   -2.7070   -1.9430 C   0  0  0  0  0  0  0  0  0  0  0  0
    6.6270   -0.8690   -1.0740 C   0  0  0  0  0  0  0  0  0  0  0  0
    6.9570   -2.8320   -2.4460 C   0  0  0  0  0  0  0  0  0  0  0  0
    7.6840   -1.6190   -1.8730 C   0  0  0  0  0  0  0  0  0  0  0  0
    2.8740   -1.3620   -1.5240 C   0  0  0  0  0  0  0  0  0  0  0  0
    4.0890    0.4540   -0.2710 C   0  0  0  0  0  0  0  0  0  0  0  0
    0.5830   -0.3090   -1.3830 C   0  0  0  0  0  0  0  0  0  0  0  0
    1.2170   -2.1720    0.0980 C   0  0  0  0  0  0  0  0  0  0  0  0
    4.9950    2.0690    1.1410 C   0  0  0  0  0  0  0  0  0  0  0  0
    6.0840    2.2970    2.2000 C   0  0  0  0  0  0  0  0  0  0  0  0
    0.9660    1.1630   -1.3160 C   0  0  0  0  0  0  0  0  0  0  0  0
    0.4140   -3.2010   -0.3850 C   0  0  0  0  0  0  0  0  0  0  0  0
    1.6140   -2.2020    1.4270 C   0  0  0  0  0  0  0  0  0  0  0  0
    5.8950    1.3800    3.4170 C   0  0  0  0  0  0  0  0  0  0  0  0
    6.0850    3.7630    2.6510 C   0  0  0  0  0  0  0  0  0  0  0  0
    1.5080    1.8120   -2.4160 C   0  0  0  0  0  0  0  0  0  0  0  0
    0.7860    1.8680   -0.1350 C   0  0  0  0  0  0  0  0  0  0  0  0
    0.0150   -4.2320    0.4460 C   0  0  0  0  0  0  0  0  0  0  0  0
    1.2190   -3.2310    2.2620 C   0  0  0  0  0  0  0  0  0  0  0  0
    0.4170   -4.2490    1.7720 C   0  0  0  0  0  0  0  0  0  0  0  0
    1.8650    3.1470   -2.3350 C   0  0  0  0  0  0  0  0  0  0  0  0
    1.1420    3.2030   -0.0520 C   0  0  0  0  0  0  0  0  0  0  0  0
    1.6820    3.8430   -1.1530 C   0  0  0  0  0  0  0  0  0  0  0  0
    4.2240   -1.6490    0.1090 H   0  0  0  0  0  0  0  0  0  0  0  0
    4.8230   -3.0420   -2.6870 H   0  0  0  0  0  0  0  0  0  0  0  0
    5.4060   -3.2870   -1.0430 H   0  0  0  0  0  0  0  0  0  0  0  0
    6.6760   -1.1600   -0.0380 H   0  0  0  0  0  0  0  0  0  0  0  0
    6.7570    0.1970   -1.1530 H   0  0  0  0  0  0  0  0  0  0  0  0
    7.3960   -3.7580   -2.1220 H   0  0  0  0  0  0  0  0  0  0  0  0
    6.9650   -2.7940   -3.5210 H   0  0  0  0  0  0  0  0  0  0  0  0
    8.0450   -0.9910   -2.6680 H   0  0  0  0  0  0  0  0  0  0  0  0
    8.5080   -1.9000   -1.2420 H   0  0  0  0  0  0  0  0  0  0  0  0
    2.8450   -0.7700   -2.4210 H   0  0  0  0  0  0  0  0  0  0  0  0
    2.8960   -2.3980   -1.8070 H   0  0  0  0  0  0  0  0  0  0  0  0
    4.1900    1.1230   -1.1070 H   0  0  0  0  0  0  0  0  0  0  0  0
    3.1390    0.6230    0.1990 H   0  0  0  0  0  0  0  0  0  0  0  0
    0.4680   -0.6220   -2.4060 H   0  0  0  0  0  0  0  0  0  0  0  0
   -0.3580   -0.4530   -0.8810 H   0  0  0  0  0  0  0  0  0  0  0  0
    5.1430    2.7260    0.3010 H   0  0  0  0  0  0  0  0  0  0  0  0
    4.0170    2.2370    1.5620 H   0  0  0  0  0  0  0  0  0  0  0  0
    7.0370    2.0830    1.7460 H   0  0  0  0  0  0  0  0  0  0  0  0
    0.1090   -3.1900   -1.4130 H   0  0  0  0  0  0  0  0  0  0  0  0
    2.2350   -1.4070    1.7970 H   0  0  0  0  0  0  0  0  0  0  0  0
    4.9410    1.5570    3.8800 H   0  0  0  0  0  0  0  0  0  0  0  0
    5.9400    0.3490    3.1140 H   0  0  0  0  0  0  0  0  0  0  0  0
    6.6710    1.5520    4.1420 H   0  0  0  0  0  0  0  0  0  0  0  0
    6.8710    3.9320    3.3650 H   0  0  0  0  0  0  0  0  0  0  0  0
    6.2480    4.4120    1.8080 H   0  0  0  0  0  0  0  0  0  0  0  0
    5.1450    4.0200    3.1070 H   0  0  0  0  0  0  0  0  0  0  0  0
    1.6580    1.2800   -3.3400 H   0  0  0  0  0  0  0  0  0  0  0  0
    0.3760    1.3670    0.7260 H   0  0  0  0  0  0  0  0  0  0  0  0
   -0.6060   -5.0230    0.0640 H   0  0  0  0  0  0  0  0  0  0  0  0
    1.5340   -3.2400    3.2900 H   0  0  0  0  0  0  0  0  0  0  0  0
    0.1080   -5.0500    2.4200 H   0  0  0  0  0  0  0  0  0  0  0  0
    2.2860    3.6430   -3.1920 H   0  0  0  0  0  0  0  0  0  0  0  0
    0.9980    3.7400    0.8680 H   0  0  0  0  0  0  0  0  0  0  0  0
    1.9590    4.8810   -1.0910 H   0  0  0  0  0  0  0  0  0  0  0  0
  1 10  1  0  0  0  0
  1 13  1  0  0  0  0
  2  4  1  0  0  0  0
  2  5  1  0  0  0  0
  2  6  1  0  0  0  0
  3  9  1  0  0  0  0
  3 11  1  0  0  0  0
  3 12  1  0  0  0  0
  4  9  1  0  0  0  0
  4 10  1  0  0  0  0
  4 28  1  0  0  0  0
  5  7  1  0  0  0  0
  5 29  1  0  0  0  0
  5 30  1  0  0  0  0
  6  8  1  0  0  0  0
  6 31  1  0  0  0  0
  6 32  1  0  0  0  0
  7  8  1  0  0  0  0
  7 33  1  0  0  0  0
  7 34  1  0  0  0  0
  8 35  1  0  0  0  0
  8 36  1  0  0  0  0
  9 37  1  0  0  0  0
  9 38  1  0  0  0  0
 10 39  1  0  0  0  0
 10 40  1  0  0  0  0
 11 15  1  0  0  0  0
 11 41  1  0  0  0  0
 11 42  1  0  0  0  0
 12 16  2  0  0  0  0
 12 17  1  0  0  0  0
 13 14  1  0  0  0  0
 13 43  1  0  0  0  0
 13 44  1  0  0  0  0
 14 18  1  0  0  0  0
 14 19  1  0  0  0  0
 14 45  1  0  0  0  0
 15 20  2  0  0  0  0
 15 21  1  0  0  0  0
 16 22  1  0  0  0  0
 16 46  1  0  0  0  0
 17 23  2  0  0  0  0
 17 47  1  0  0  0  0
 18 48  1  0  0  0  0
 18 49  1  0  0  0  0
 18 50  1  0  0  0  0
 19 51  1  0  0  0  0
 19 52  1  0  0  0  0
 19 53  1  0  0  0  0
 20 25  1  0  0  0  0
 20 54  1  0  0  0  0
 21 26  2  0  0  0  0
 21 55  1  0  0  0  0
 22 24  2  0  0  0  0
 22 56  1  0  0  0  0
 23 24  1  0  0  0  0
 23 57  1  0  0  0  0
 24 58  1  0  0  0  0
 25 27  2  0  0  0  0
 25 59  1  0  0  0  0
 26 27  1  0  0  0  0
 26 60  1  0  0  0  0
 27 61  1  0  0  0  0
M  END
$$$$
chlorpromazine
  MOE2024           3D

 40 42  0  0  0  0  0  0  0  0999 V2000
    1.3020   -5.7640   -1.9800 Cl  0  0  0  0  0  0  0  0  0  0  0  0
    2.5930   -0.2490    0.7090 S   0  0  0  0  0  0  0  0  0  0  0  0
    4.6750   -2.2690   -0.3290 N   0  0  0  0  0  0  0  0  0  0  0  0
    8.0640   -5.8940   -0.0850 N   0  0  0  0  0  0  0  0  0  0  0  0
    5.4930   -3.1590    0.5450 C   0  0  0  0  0  0  0  0  0  0  0  0
    6.4000   -4.0860   -0.2690 C   0  0  0  0  0  0  0  0  0  0  0  0
    7.3450   -4.8550    0.6590 C   0  0  0  0  0  0  0  0  0  0  0  0
    3.3240   -2.6430   -0.4910 C   0  0  0  0  0  0  0  0  0  0  0  0
    5.0720   -0.9140   -0.3440 C   0  0  0  0  0  0  0  0  0  0  0  0
    2.2640   -1.8570   -0.0270 C   0  0  0  0  0  0  0  0  0  0  0  0
    4.2600    0.1140    0.1390 C   0  0  0  0  0  0  0  0  0  0  0  0
    2.9970   -3.8460   -1.1090 C   0  0  0  0  0  0  0  0  0  0  0  0
    6.3300   -0.5530   -0.8200 C   0  0  0  0  0  0  0  0  0  0  0  0
    0.9430   -2.2540   -0.1210 C   0  0  0  0  0  0  0  0  0  0  0  0
    4.6820    1.4290    0.1890 C   0  0  0  0  0  0  0  0  0  0  0  0
    9.1180   -5.3450   -0.9500 C   0  0  0  0  0  0  0  0  0  0  0  0
    8.6340   -6.8890    0.8300 C   0  0  0  0  0  0  0  0  0  0  0  0
    1.6760   -4.2420   -1.2110 C   0  0  0  0  0  0  0  0  0  0  0  0
    6.7640    0.7620   -0.7840 C   0  0  0  0  0  0  0  0  0  0  0  0
    0.6420   -3.4670   -0.7200 C   0  0  0  0  0  0  0  0  0  0  0  0
    5.9450    1.7550   -0.2740 C   0  0  0  0  0  0  0  0  0  0  0  0
    6.0950   -2.5490    1.1970 H   0  0  0  0  0  0  0  0  0  0  0  0
    4.8380   -3.7470    1.1660 H   0  0  0  0  0  0  0  0  0  0  0  0
    6.9710   -3.5080   -0.9660 H   0  0  0  0  0  0  0  0  0  0  0  0
    5.8040   -4.7970   -0.8070 H   0  0  0  0  0  0  0  0  0  0  0  0
    6.7540   -5.3250    1.4270 H   0  0  0  0  0  0  0  0  0  0  0  0
    8.0430   -4.1850    1.1330 H   0  0  0  0  0  0  0  0  0  0  0  0
    3.7620   -4.4740   -1.5170 H   0  0  0  0  0  0  0  0  0  0  0  0
    6.9760   -1.3060   -1.2270 H   0  0  0  0  0  0  0  0  0  0  0  0
    0.1620   -1.6210    0.2610 H   0  0  0  0  0  0  0  0  0  0  0  0
    4.0280    2.1880    0.5790 H   0  0  0  0  0  0  0  0  0  0  0  0
    9.8310   -4.7860   -0.3690 H   0  0  0  0  0  0  0  0  0  0  0  0
    9.6300   -6.1470   -1.4550 H   0  0  0  0  0  0  0  0  0  0  0  0
    8.6910   -4.7040   -1.7000 H   0  0  0  0  0  0  0  0  0  0  0  0
    9.3510   -6.4300    1.4890 H   0  0  0  0  0  0  0  0  0  0  0  0
    7.8510   -7.3390    1.4160 H   0  0  0  0  0  0  0  0  0  0  0  0
    9.1200   -7.6680    0.2670 H   0  0  0  0  0  0  0  0  0  0  0  0
    7.7430    1.0140   -1.1550 H   0  0  0  0  0  0  0  0  0  0  0  0
   -0.3740   -3.8040   -0.8100 H   0  0  0  0  0  0  0  0  0  0  0  0
    6.2850    2.7760   -0.2430 H   0  0  0  0  0  0  0  0  0  0  0  0
  1 18  1  0  0  0  0
  2 10  1  0  0  0  0
  2 11  1  0  0  0  0
  3  5  1  0  0  0  0
  3  8  1  0  0  0  0
  3  9  1  0  0  0  0
  4  7  1  0  0  0  0
  4 16  1  0  0  0  0
  4 17  1  0  0  0  0
  5  6  1  0  0  0  0
  5 22  1  0  0  0  0
  5 23  1  0  0  0  0
  6  7  1  0  0  0  0
  6 24  1  0  0  0  0
  6 25  1  0  0  0  0
  7 26  1  0  0  0  0
  7 27  1  0  0  0  0
  8 10  2  0  0  0  0
  8 12  1  0  0  0  0
  9 11  2  0  0  0  0
  9 13  1  0  0  0  0
 10 14  1  0  0  0  0
 11 15  1  0  0  0  0
 12 18  2  0  0  0  0
 12 28  1  0  0  0  0
 13 19  2  0  0  0  0
 13 29  1  0  0  0  0
 14 20  2  0  0  0  0
 14 30  1  0  0  0  0
 15 21  2  0  0  0  0
 15 31  1  0  0  0  0
 16 32  1  0  0  0  0
 16 33  1  0  0  0  0
 16 34  1  0  0  0  0
 17 35  1  0  0  0  0
 17 36  1  0  0  0  0
 17 37  1  0  0  0  0
 18 20  1  0  0  0  0
 19 21  1  0  0  0  0
 19 38  1  0  0  0  0
 20 39  1  0  0  0  0
 21 40  1  0  0  0  0
M  END
$$$$
cisapride
  MOE2024           3D

 61 63  0  0  1  0  0  0  0  0999 V2000
   -1.9620    6.6100   -3.6180 Cl  0  0  0  0  0  0  0  0  0  0  0  0
   17.6650    5.7470    0.0760 F   0  0  0  0  0  0  0  0  0  0  0  0
    4.4340    6.6340    1.9610 O   0  0  0  0  0  0  0  0  0  0  0  0
   12.2640    5.5050    0.2760 O   0  0  0  0  0  0  0  0  0  0  0  0
    3.0610    7.2040   -2.2510 O   0  0  0  0  0  0  0  0  0  0  0  0
    1.2780    6.1750    1.2560 O   0  0  0  0  0  0  0  0  0  0  0  0
    7.5750    6.6510   -0.5220 N   0  0  2  0  0  0  0  0  0  0  0  0
    3.4980    6.1750   -0.3470 N   0  0  0  0  0  0  0  0  0  0  0  0
   -3.0280    6.0780   -0.8460 N   0  0  0  0  0  0  0  0  0  0  0  0
    4.9640    6.4320   -0.3150 C   0  0  1  0  0  0  0  0  0  0  0  0
    5.5740    6.6220    1.1300 C   0  0  2  0  0  0  0  0  0  0  0  0
    5.6240    5.2690   -1.0670 C   0  0  0  0  0  0  0  0  0  0  0  0
    7.1190    6.7380    0.8810 C   0  0  0  0  0  0  0  0  0  0  0  0
    7.1470    5.4000   -1.1490 C   0  0  0  0  0  0  0  0  0  0  0  0
    8.9890    6.9870   -0.7400 C   0  0  0  0  0  0  0  0  0  0  0  0
    9.9660    6.0120   -0.0680 C   0  0  0  0  0  0  0  0  0  0  0  0
    2.6080    6.6550   -1.2620 C   0  0  0  0  0  0  0  0  0  0  0  0
   11.4070    6.4190   -0.3670 C   0  0  0  0  0  0  0  0  0  0  0  0
    3.9550    7.9180    2.2370 C   0  0  0  0  0  0  0  0  0  0  0  0
    1.1710    6.5110   -1.0990 C   0  0  0  0  0  0  0  0  0  0  0  0
    0.5220    6.2630    0.1310 C   0  0  0  0  0  0  0  0  0  0  0  0
    0.3550    6.6170   -2.2310 C   0  0  0  0  0  0  0  0  0  0  0  0
   13.6130    5.6190    0.1870 C   0  0  0  0  0  0  0  0  0  0  0  0
   -0.8620    6.1220    0.1930 C   0  0  0  0  0  0  0  0  0  0  0  0
   -1.0100    6.4760   -2.1510 C   0  0  0  0  0  0  0  0  0  0  0  0
   -1.6530    6.2230   -0.9400 C   0  0  0  0  0  0  0  0  0  0  0  0
   14.2590    6.6250   -0.5340 C   0  0  0  0  0  0  0  0  0  0  0  0
   14.3600    4.6630    0.8650 C   0  0  0  0  0  0  0  0  0  0  0  0
    0.7680    5.7700    2.5080 C   0  0  0  0  0  0  0  0  0  0  0  0
   15.6430    6.6700   -0.5730 C   0  0  0  0  0  0  0  0  0  0  0  0
   15.7440    4.7000    0.8330 C   0  0  0  0  0  0  0  0  0  0  0  0
   16.3590    5.7050    0.1120 C   0  0  0  0  0  0  0  0  0  0  0  0
    5.1550    7.3360   -0.8710 H   0  0  0  0  0  0  0  0  0  0  0  0
    6.0300    6.7200    2.1000 H   0  0  0  0  0  0  0  0  0  0  0  0
    5.3790    4.3420   -0.5810 H   0  0  0  0  0  0  0  0  0  0  0  0
    5.2300    5.2330   -2.0670 H   0  0  0  0  0  0  0  0  0  0  0  0
    7.6170    5.9550    1.4320 H   0  0  0  0  0  0  0  0  0  0  0  0
    7.4550    7.6890    1.2640 H   0  0  0  0  0  0  0  0  0  0  0  0
    7.6060    4.5610   -0.6540 H   0  0  0  0  0  0  0  0  0  0  0  0
    7.4500    5.3940   -2.1830 H   0  0  0  0  0  0  0  0  0  0  0  0
    9.1750    7.0050   -1.8010 H   0  0  0  0  0  0  0  0  0  0  0  0
    9.1650    7.9830   -0.3670 H   0  0  0  0  0  0  0  0  0  0  0  0
    3.1370    5.9680    0.5940 H   0  0  0  0  0  0  0  0  0  0  0  0
    9.8240    6.0240    0.9970 H   0  0  0  0  0  0  0  0  0  0  0  0
    9.8100    5.0170   -0.4430 H   0  0  0  0  0  0  0  0  0  0  0  0
   11.6020    6.3810   -1.4250 H   0  0  0  0  0  0  0  0  0  0  0  0
   11.6130    7.4040    0.0180 H   0  0  0  0  0  0  0  0  0  0  0  0
    3.6890    8.4060    1.3140 H   0  0  0  0  0  0  0  0  0  0  0  0
    4.7130    8.4800    2.7540 H   0  0  0  0  0  0  0  0  0  0  0  0
    3.0820    7.8250    2.8580 H   0  0  0  0  0  0  0  0  0  0  0  0
    0.8020    6.8110   -3.1910 H   0  0  0  0  0  0  0  0  0  0  0  0
   -1.3620    5.9420    1.1240 H   0  0  0  0  0  0  0  0  0  0  0  0
   13.7070    7.3750   -1.0680 H   0  0  0  0  0  0  0  0  0  0  0  0
   13.8490    3.8940    1.4160 H   0  0  0  0  0  0  0  0  0  0  0  0
   -3.5500    6.0080   -1.7290 H   0  0  0  0  0  0  0  0  0  0  0  0
   -3.4220    5.5010   -0.0980 H   0  0  0  0  0  0  0  0  0  0  0  0
    0.0610    6.5030    2.8530 H   0  0  0  0  0  0  0  0  0  0  0  0
    1.5920    5.7060    3.1970 H   0  0  0  0  0  0  0  0  0  0  0  0
    0.3060    4.8040    2.4030 H   0  0  0  0  0  0  0  0  0  0  0  0
   16.1620    7.4350   -1.1210 H   0  0  0  0  0  0  0  0  0  0  0  0
   16.3350    3.9670    1.3520 H   0  0  0  0  0  0  0  0  0  0  0  0
  1 25  1  0  0  0  0
  2 32  1  0  0  0  0
  3 11  1  0  0  0  0
  3 19  1  0  0  0  0
  4 18  1  0  0  0  0
  4 23  1  0  0  0  0
  5 17  2  0  0  0  0
  6 21  1  0  0  0  0
  6 29  1  0  0  0  0
  7 13  1  0  0  0  0
  7 14  1  0  0  0  0
  7 15  1  0  0  0  0
  8 10  1  0  0  0  0
  8 17  1  0  0  0  0
  8 43  1  0  0  0  0
  9 26  1  0  0  0  0
  9 55  1  0  0  0  0
  9 56  1  0  0  0  0
 10 11  1  0  0  0  0
 10 12  1  0  0  0  0
 10 33  1  0  0  0  0
 11 13  1  0  0  0  0
 11 34  1  0  0  0  0
 12 14  1  0  0  0  0
 12 35  1  0  0  0  0
 12 36  1  0  0  0  0
 13 37  1  0  0  0  0
 13 38  1  0  0  0  0
 14 39  1  0  0  0  0
 14 40  1  0  0  0  0
 15 16  1  0  0  0  0
 15 41  1  0  0  0  0
 15 42  1  0  0  0  0
 16 18  1  0  0  0  0
 16 44  1  0  0  0  0
 16 45  1  0  0  0  0
 17 20  1  0  0  0  0
 18 46  1  0  0  0  0
 18 47  1  0  0  0  0
 19 48  1  0  0  0  0
 19 49  1  0  0  0  0
 19 50  1  0  0  0  0
 20 21  1  0  0  0  0
 20 22  2  0  0  0  0
 21 24  2  0  0  0  0
 22 25  1  0  0  0  0
 22 51  1  0  0  0  0
 23 27  1  0  0  0  0
 23 28  2  0  0  0  0
 24 26  1  0  0  0  0
 24 52  1  0  0  0  0
 25 26  2  0  0  0  0
 27 30  2  0  0  0  0
 27 53  1  0  0  0  0
 28 31  1  0  0  0  0
 28 54  1  0  0  0  0
 29 57  1  0  0  0  0
 29 58  1  0  0  0  0
 29 59  1  0  0  0  0
 30 32  1  0  0  0  0
 30 60  1  0  0  0  0
 31 32  2  0  0  0  0
 31 61  1  0  0  0  0
M  END
$$$$
diltiazem
  MOE2024           3D

 55 57  0  0  1  0  0  0  0  0999 V2000
    2.0770    0.5830   -1.9770 S   0  0  0  0  0  0  0  0  0  0  0  0
    2.4720    3.1470   -0.0230 O   0  0  0  0  0  0  0  0  0  0  0  0
    0.0300    2.5030    1.5880 O   0  0  0  0  0  0  0  0  0  0  0  0
    8.3020    0.7990   -0.0280 O   0  0  0  0  0  0  0  0  0  0  0  0
    0.9440    3.5870   -1.5830 O   0  0  0  0  0  0  0  0  0  0  0  0
   -0.4550    1.2080   -0.1820 N   0  0  0  0  0  0  0  0  0  0  0  0
   -4.0990    2.1720    0.0880 N   0  0  0  0  0  0  0  0  0  0  0  0
    2.6290    0.7090   -0.2250 C   0  0  2  0  0  0  0  0  0  0  0  0
    1.9740    1.9000    0.4780 C   0  0  2  0  0  0  0  0  0  0  0  0
    0.4450    1.8680    0.6430 C   0  0  0  0  0  0  0  0  0  0  0  0
   -1.6920    1.9810   -0.5330 C   0  0  0  0  0  0  0  0  0  0  0  0
   -0.3650   -0.0550   -0.8270 C   0  0  0  0  0  0  0  0  0  0  0  0
    4.1580    0.7290   -0.1750 C   0  0  0  0  0  0  0  0  0  0  0  0
    0.6260   -0.4260   -1.7400 C   0  0  0  0  0  0  0  0  0  0  0  0
   -2.7290    1.9850    0.6040 C   0  0  0  0  0  0  0  0  0  0  0  0
   -1.3780   -0.9870   -0.6050 C   0  0  0  0  0  0  0  0  0  0  0  0
    0.5790   -1.6100   -2.4500 C   0  0  0  0  0  0  0  0  0  0  0  0
    4.9080    1.5160   -1.0400 C   0  0  0  0  0  0  0  0  0  0  0  0
    4.8190   -0.0540    0.7620 C   0  0  0  0  0  0  0  0  0  0  0  0
   -1.4290   -2.1880   -1.2930 C   0  0  0  0  0  0  0  0  0  0  0  0
   -0.4570   -2.4980   -2.2280 C   0  0  0  0  0  0  0  0  0  0  0  0
    6.2890    1.5190   -0.9670 C   0  0  0  0  0  0  0  0  0  0  0  0
    6.2020   -0.0530    0.8370 C   0  0  0  0  0  0  0  0  0  0  0  0
   -4.9790    2.6940    1.1370 C   0  0  0  0  0  0  0  0  0  0  0  0
   -4.6560    0.9320   -0.4700 C   0  0  0  0  0  0  0  0  0  0  0  0
    6.9470    0.7380   -0.0320 C   0  0  0  0  0  0  0  0  0  0  0  0
    1.9470    3.8800   -0.9940 C   0  0  0  0  0  0  0  0  0  0  0  0
    2.7070    5.1360   -1.3260 C   0  0  0  0  0  0  0  0  0  0  0  0
    9.0700    0.0200    0.8620 C   0  0  0  0  0  0  0  0  0  0  0  0
    2.2830   -0.1950    0.2420 H   0  0  0  0  0  0  0  0  0  0  0  0
    2.3500    1.8610    1.4830 H   0  0  0  0  0  0  0  0  0  0  0  0
   -1.4220    2.9990   -0.7520 H   0  0  0  0  0  0  0  0  0  0  0  0
   -2.1220    1.5670   -1.4260 H   0  0  0  0  0  0  0  0  0  0  0  0
   -2.6750    1.0760    1.1740 H   0  0  0  0  0  0  0  0  0  0  0  0
   -2.4830    2.8010    1.2620 H   0  0  0  0  0  0  0  0  0  0  0  0
   -2.1480   -0.7700    0.1090 H   0  0  0  0  0  0  0  0  0  0  0  0
    1.3550   -1.8410   -3.1590 H   0  0  0  0  0  0  0  0  0  0  0  0
    4.4220    2.1300   -1.7780 H   0  0  0  0  0  0  0  0  0  0  0  0
    4.2630   -0.6740    1.4420 H   0  0  0  0  0  0  0  0  0  0  0  0
   -2.2300   -2.8820   -1.1050 H   0  0  0  0  0  0  0  0  0  0  0  0
   -0.5020   -3.4250   -2.7720 H   0  0  0  0  0  0  0  0  0  0  0  0
    6.8680    2.1270   -1.6390 H   0  0  0  0  0  0  0  0  0  0  0  0
    6.6790   -0.6710    1.5720 H   0  0  0  0  0  0  0  0  0  0  0  0
   -5.0380    2.0020    1.9610 H   0  0  0  0  0  0  0  0  0  0  0  0
   -5.9660    2.8570    0.7410 H   0  0  0  0  0  0  0  0  0  0  0  0
   -4.6010    3.6360    1.4960 H   0  0  0  0  0  0  0  0  0  0  0  0
   -4.0430    0.5730   -1.2770 H   0  0  0  0  0  0  0  0  0  0  0  0
   -5.6420    1.1210   -0.8590 H   0  0  0  0  0  0  0  0  0  0  0  0
   -4.7200    0.1720    0.2900 H   0  0  0  0  0  0  0  0  0  0  0  0
    3.7100    4.8830   -1.6120 H   0  0  0  0  0  0  0  0  0  0  0  0
    2.2240    5.6490   -2.1370 H   0  0  0  0  0  0  0  0  0  0  0  0
    2.7310    5.7770   -0.4660 H   0  0  0  0  0  0  0  0  0  0  0  0
    8.8190    0.2940    1.8720 H   0  0  0  0  0  0  0  0  0  0  0  0
    8.8660   -1.0210    0.6810 H   0  0  0  0  0  0  0  0  0  0  0  0
   10.1080    0.2260    0.6750 H   0  0  0  0  0  0  0  0  0  0  0  0
  1  8  1  0  0  0  0
  1 14  1  0  0  0  0
  2  9  1  0  0  0  0
  2 27  1  0  0  0  0
  3 10  2  0  0  0  0
  4 26  1  0  0  0  0
  4 29  1  0  0  0  0
  5 27  2  0  0  0  0
  6 10  1  0  0  0  0
  6 11  1  0  0  0  0
  6 12  1  0  0  0  0
  7 15  1  0  0  0  0
  7 24  1  0  0  0  0
  7 25  1  0  0  0  0
  8  9  1  0  0  0  0
  8 13  1  0  0  0  0
  8 30  1  0  0  0  0
  9 10  1  0  0  0  0
  9 31  1  0  0  0  0
 11 15  1  0  0  0  0
 11 32  1  0  0  0  0
 11 33  1  0  0  0  0
 12 14  1  0  0  0  0
 12 16  2  0  0  0  0
 13 18  1  0  0  0  0
 13 19  2  0  0  0  0
 14 17  2  0  0  0  0
 15 34  1  0  0  0  0
 15 35  1  0  0  0  0
 16 20  1  0  0  0  0
 16 36  1  0  0  0  0
 17 21  1  0  0  0  0
 17 37  1  0  0  0  0
 18 22  2  0  0  0  0
 18 38  1  0  0  0  0
 19 23  1  0  0  0  0
 19 39  1  0  0  0  0
 20 21  2  0  0  0  0
 20 40  1  0  0  0  0
 21 41  1  0  0  0  0
 22 26  1  0  0  0  0
 22 42  1  0  0  0  0
 23 26  2  0  0  0  0
 23 43  1  0  0  0  0
 24 44  1  0  0  0  0
 24 45  1  0  0  0  0
 24 46  1  0  0  0  0
 25 47  1  0  0  0  0
 25 48  1  0  0  0  0
 25 49  1  0  0  0  0
 27 28  1  0  0  0  0
 28 50  1  0  0  0  0
 28 51  1  0  0  0  0
 28 52  1  0  0  0  0
 29 53  1  0  0  0  0
 29 54  1  0  0  0  0
 29 55  1  0  0  0  0
M  END
$$$$
disopyramide
  MOE2024           3D

 54 55  0  0  1  0  0  0  0  0999 V2000
    2.3930    2.5430   -2.5670 O   0  0  0  0  0  0  0  0  0  0  0  0
    4.2290    1.7750   -0.0060 N   0  0  0  0  0  0  0  0  0  0  0  0
   -0.4200    3.3960   -2.3160 N   0  0  0  0  0  0  0  0  0  0  0  0
    1.8410    0.4260   -2.6360 N   0  0  0  0  0  0  0  0  0  0  0  0
    0.8630    1.8950   -0.8000 C   0  0  1  0  0  0  0  0  0  0  0  0
    1.8000    2.3870    0.3490 C   0  0  0  0  0  0  0  0  0  0  0  0
    2.9820    1.4590    0.7230 C   0  0  0  0  0  0  0  0  0  0  0  0
    5.2010    0.6560   -0.2160 C   0  0  0  0  0  0  0  0  0  0  0  0
    4.7870    3.0830    0.4460 C   0  0  0  0  0  0  0  0  0  0  0  0
    0.0480    0.6180   -0.4270 C   0  0  0  0  0  0  0  0  0  0  0  0
   -0.2200    2.9790   -1.0670 C   0  0  0  0  0  0  0  0  0  0  0  0
    1.7460    1.6520   -2.0650 C   0  0  0  0  0  0  0  0  0  0  0  0
    6.0360    0.9360   -1.4690 C   0  0  0  0  0  0  0  0  0  0  0  0
    4.5480   -0.7200   -0.4060 C   0  0  0  0  0  0  0  0  0  0  0  0
    5.0230    4.0090   -0.7470 C   0  0  0  0  0  0  0  0  0  0  0  0
    6.0210    2.9780    1.3470 C   0  0  0  0  0  0  0  0  0  0  0  0
    0.1140   -0.0370    0.8030 C   0  0  0  0  0  0  0  0  0  0  0  0
   -0.8420    0.1110   -1.3720 C   0  0  0  0  0  0  0  0  0  0  0  0
   -0.9920    3.4500   -0.0060 C   0  0  0  0  0  0  0  0  0  0  0  0
   -0.6450   -1.1650    1.0580 C   0  0  0  0  0  0  0  0  0  0  0  0
   -1.6040   -1.0150   -1.1220 C   0  0  0  0  0  0  0  0  0  0  0  0
   -1.9670    4.4030   -0.2120 C   0  0  0  0  0  0  0  0  0  0  0  0
   -1.5030   -1.6600    0.0950 C   0  0  0  0  0  0  0  0  0  0  0  0
   -1.3520    4.3130   -2.5050 C   0  0  0  0  0  0  0  0  0  0  0  0
   -2.1420    4.8450   -1.5030 C   0  0  0  0  0  0  0  0  0  0  0  0
    2.1610    3.3600    0.0740 H   0  0  0  0  0  0  0  0  0  0  0  0
    1.2220    2.5220    1.2410 H   0  0  0  0  0  0  0  0  0  0  0  0
    2.6640    0.4570    0.5270 H   0  0  0  0  0  0  0  0  0  0  0  0
    3.1800    1.5310    1.7800 H   0  0  0  0  0  0  0  0  0  0  0  0
    5.8540    0.5670    0.6340 H   0  0  0  0  0  0  0  0  0  0  0  0
    4.0470    3.5800    1.0480 H   0  0  0  0  0  0  0  0  0  0  0  0
    6.6020    0.0690   -1.7550 H   0  0  0  0  0  0  0  0  0  0  0  0
    5.3900    1.2100   -2.2850 H   0  0  0  0  0  0  0  0  0  0  0  0
    6.7440    1.7200   -1.2910 H   0  0  0  0  0  0  0  0  0  0  0  0
    4.1070   -1.0650    0.5100 H   0  0  0  0  0  0  0  0  0  0  0  0
    3.8120   -0.6830   -1.1860 H   0  0  0  0  0  0  0  0  0  0  0  0
    5.2910   -1.4470   -0.6800 H   0  0  0  0  0  0  0  0  0  0  0  0
    5.8360    3.6810   -1.3600 H   0  0  0  0  0  0  0  0  0  0  0  0
    4.1340    4.0600   -1.3490 H   0  0  0  0  0  0  0  0  0  0  0  0
    5.2480    4.9990   -0.3980 H   0  0  0  0  0  0  0  0  0  0  0  0
    5.8200    2.3240    2.1750 H   0  0  0  0  0  0  0  0  0  0  0  0
    6.8790    2.6300    0.8040 H   0  0  0  0  0  0  0  0  0  0  0  0
    6.2570    3.9510    1.7390 H   0  0  0  0  0  0  0  0  0  0  0  0
    0.7460    0.3100    1.5980 H   0  0  0  0  0  0  0  0  0  0  0  0
   -0.9510    0.6040   -2.3260 H   0  0  0  0  0  0  0  0  0  0  0  0
   -0.8520    3.0720    0.9880 H   0  0  0  0  0  0  0  0  0  0  0  0
    1.3280   -0.3860   -2.2890 H   0  0  0  0  0  0  0  0  0  0  0  0
    2.4480    0.3030   -3.4440 H   0  0  0  0  0  0  0  0  0  0  0  0
   -0.5720   -1.6590    2.0110 H   0  0  0  0  0  0  0  0  0  0  0  0
   -2.2790   -1.3860   -1.8740 H   0  0  0  0  0  0  0  0  0  0  0  0
   -2.5660    4.7800    0.5980 H   0  0  0  0  0  0  0  0  0  0  0  0
   -2.0940   -2.5380    0.2930 H   0  0  0  0  0  0  0  0  0  0  0  0
   -1.4940    4.6570   -3.5150 H   0  0  0  0  0  0  0  0  0  0  0  0
   -2.8810    5.5890   -1.7350 H   0  0  0  0  0  0  0  0  0  0  0  0
  1 12  2  0  0  0  0
  2  7  1  0  0  0  0
  2  8  1  0  0  0  0
  2  9  1  0  0  0  0
  3 11  1  0  0  0  0
  3 24  2  0  0  0  0
  4 12  1  0  0  0  0
  4 47  1  0  0  0  0
  4 48  1  0  0  0  0
  5  6  1  0  0  0  0
  5 10  1  0  0  0  0
  5 11  1  0  0  0  0
  5 12  1  0  0  0  0
  6  7  1  0  0  0  0
  6 26  1  0  0  0  0
  6 27  1  0  0  0  0
  7 28  1  0  0  0  0
  7 29  1  0  0  0  0
  8 13  1  0  0  0  0
  8 14  1  0  0  0  0
  8 30  1  0  0  0  0
  9 15  1  0  0  0  0
  9 16  1  0  0  0  0
  9 31  1  0  0  0  0
 10 17  2  0  0  0  0
 10 18  1  0  0  0  0
 11 19  2  0  0  0  0
 13 32  1  0  0  0  0
 13 33  1  0  0  0  0
 13 34  1  0  0  0  0
 14 35  1  0  0  0  0
 14 36  1  0  0  0  0
 14 37  1  0  0  0  0
 15 38  1  0  0  0  0
 15 39  1  0  0  0  0
 15 40  1  0  0  0  0
 16 41  1  0  0  0  0
 16 42  1  0  0  0  0
 16 43  1  0  0  0  0
 17 20  1  0  0  0  0
 17 44  1  0  0  0  0
 18 21  2  0  0  0  0
 18 45  1  0  0  0  0
 19 22  1  0  0  0  0
 19 46  1  0  0  0  0
 20 23  2  0  0  0  0
 20 49  1  0  0  0  0
 21 23  1  0  0  0  0
 21 50  1  0  0  0  0
 22 25  2  0  0  0  0
 22 51  1  0  0  0  0
 23 52  1  0  0  0  0
 24 25  1  0  0  0  0
 24 53  1  0  0  0  0
 25 54  1  0  0  0  0
M  END
$$$$
dofetilide
  MOE2024           3D

 56 57  0  0  1  0  0  0  0  0999 V2000
  -15.4850    4.5470    0.6720 S   0  0  0  0  0  0  0  0  0  0  0  0
    2.9330    8.4780   -0.9850 S   0  0  0  0  0  0  0  0  0  0  0  0
   -3.7120    7.7760    0.2930 O   0  0  0  0  0  0  0  0  0  0  0  0
  -16.1550    3.3660    0.1930 O   0  0  0  0  0  0  0  0  0  0  0  0
  -15.1830    4.7320    2.0680 O   0  0  0  0  0  0  0  0  0  0  0  0
    2.8140    7.0520   -1.1540 O   0  0  0  0  0  0  0  0  0  0  0  0
    3.8550    9.2570   -1.7710 O   0  0  0  0  0  0  0  0  0  0  0  0
   -7.3190    8.6200    0.3210 N   0  0  2  0  0  0  0  0  0  0  0  0
  -14.0190    4.5800   -0.2150 N   0  0  0  0  0  0  0  0  0  0  0  0
    1.4090    9.1930   -1.3100 N   0  0  0  0  0  0  0  0  0  0  0  0
   -8.4960    7.7390    0.4420 C   0  0  0  0  0  0  0  0  0  0  0  0
   -9.7070    8.3180   -0.2960 C   0  0  0  0  0  0  0  0  0  0  0  0
   -6.0800    7.8640    0.6040 C   0  0  0  0  0  0  0  0  0  0  0  0
  -10.8610    7.3280   -0.2630 C   0  0  0  0  0  0  0  0  0  0  0  0
   -4.8510    8.5690    0.0270 C   0  0  0  0  0  0  0  0  0  0  0  0
   -7.4370    9.7950    1.2030 C   0  0  0  0  0  0  0  0  0  0  0  0
  -11.0110    6.3910   -1.2720 C   0  0  0  0  0  0  0  0  0  0  0  0
  -11.7690    7.3440    0.7840 C   0  0  0  0  0  0  0  0  0  0  0  0
  -12.9780    5.4990   -0.1950 C   0  0  0  0  0  0  0  0  0  0  0  0
  -12.0570    5.4870   -1.2360 C   0  0  0  0  0  0  0  0  0  0  0  0
  -12.8140    6.4380    0.8180 C   0  0  0  0  0  0  0  0  0  0  0  0
   -2.4790    8.1640   -0.1290 C   0  0  0  0  0  0  0  0  0  0  0  0
    0.1300    8.8140   -0.9100 C   0  0  0  0  0  0  0  0  0  0  0  0
   -2.2320    9.3300   -0.8470 C   0  0  0  0  0  0  0  0  0  0  0  0
   -1.4210    7.3280    0.1880 C   0  0  0  0  0  0  0  0  0  0  0  0
   -0.9390    9.6440   -1.2300 C   0  0  0  0  0  0  0  0  0  0  0  0
   -0.1320    7.6470   -0.1990 C   0  0  0  0  0  0  0  0  0  0  0  0
  -16.3350    5.9760    0.0380 C   0  0  0  0  0  0  0  0  0  0  0  0
    3.1740    8.8740    0.7330 C   0  0  0  0  0  0  0  0  0  0  0  0
   -8.2760    6.7830   -0.0030 H   0  0  0  0  0  0  0  0  0  0  0  0
   -8.7350    7.5720    1.4790 H   0  0  0  0  0  0  0  0  0  0  0  0
  -10.0210    9.2380    0.1600 H   0  0  0  0  0  0  0  0  0  0  0  0
   -9.4340    8.5220   -1.3160 H   0  0  0  0  0  0  0  0  0  0  0  0
   -6.1380    6.8940    0.1400 H   0  0  0  0  0  0  0  0  0  0  0  0
   -5.9640    7.7300    1.6670 H   0  0  0  0  0  0  0  0  0  0  0  0
   -4.7030    9.5270    0.4890 H   0  0  0  0  0  0  0  0  0  0  0  0
   -4.9540    8.6700   -1.0390 H   0  0  0  0  0  0  0  0  0  0  0  0
   -8.3070   10.3720    0.9440 H   0  0  0  0  0  0  0  0  0  0  0  0
   -7.5160    9.4870    2.2320 H   0  0  0  0  0  0  0  0  0  0  0  0
   -6.5800   10.4350    1.0940 H   0  0  0  0  0  0  0  0  0  0  0  0
  -10.3100    6.3630   -2.0890 H   0  0  0  0  0  0  0  0  0  0  0  0
  -11.6630    8.0600    1.5800 H   0  0  0  0  0  0  0  0  0  0  0  0
  -12.1590    4.7670   -2.0260 H   0  0  0  0  0  0  0  0  0  0  0  0
  -13.4930    6.4660    1.6490 H   0  0  0  0  0  0  0  0  0  0  0  0
  -13.9910    3.8140   -0.8800 H   0  0  0  0  0  0  0  0  0  0  0  0
   -3.0270   10.0000   -1.1150 H   0  0  0  0  0  0  0  0  0  0  0  0
   -1.6160    6.4240    0.7360 H   0  0  0  0  0  0  0  0  0  0  0  0
   -0.7580   10.5470   -1.7830 H   0  0  0  0  0  0  0  0  0  0  0  0
    0.6620    6.9700    0.0530 H   0  0  0  0  0  0  0  0  0  0  0  0
    1.5140    9.9400   -1.9890 H   0  0  0  0  0  0  0  0  0  0  0  0
  -15.7770    6.8660    0.2550 H   0  0  0  0  0  0  0  0  0  0  0  0
  -17.3030    6.0580    0.4920 H   0  0  0  0  0  0  0  0  0  0  0  0
  -16.4580    5.8940   -1.0240 H   0  0  0  0  0  0  0  0  0  0  0  0
    2.4090    8.4190    1.3300 H   0  0  0  0  0  0  0  0  0  0  0  0
    4.1280    8.5130    1.0620 H   0  0  0  0  0  0  0  0  0  0  0  0
    3.1390    9.9360    0.8760 H   0  0  0  0  0  0  0  0  0  0  0  0
  1  4  2  0  0  0  0
  1  5  2  0  0  0  0
  1  9  1  0  0  0  0
  1 28  1  0  0  0  0
  2  6  2  0  0  0  0
  2  7  2  0  0  0  0
  2 10  1  0  0  0  0
  2 29  1  0  0  0  0
  3 15  1  0  0  0  0
  3 22  1  0  0  0  0
  8 11  1  0  0  0  0
  8 13  1  0  0  0  0
  8 16  1  0  0  0  0
  9 19  1  0  0  0  0
  9 45  1  0  0  0  0
 10 23  1  0  0  0  0
 10 50  1  0  0  0  0
 11 12  1  0  0  0  0
 11 30  1  0  0  0  0
 11 31  1  0  0  0  0
 12 14  1  0  0  0  0
 12 32  1  0  0  0  0
 12 33  1  0  0  0  0
 13 15  1  0  0  0  0
 13 34  1  0  0  0  0
 13 35  1  0  0  0  0
 14 17  2  0  0  0  0
 14 18  1  0  0  0  0
 15 36  1  0  0  0  0
 15 37  1  0  0  0  0
 16 38  1  0  0  0  0
 16 39  1  0  0  0  0
 16 40  1  0  0  0  0
 17 20  1  0  0  0  0
 17 41  1  0  0  0  0
 18 21  2  0  0  0  0
 18 42  1  0  0  0  0
 19 20  2  0  0  0  0
 19 21  1  0  0  0  0
 20 43  1  0  0  0  0
 21 44  1  0  0  0  0
 22 24  2  0  0  0  0
 22 25  1  0  0  0  0
 23 26  2  0  0  0  0
 23 27  1  0  0  0  0
 24 26  1  0  0  0  0
 24 46  1  0  0  0  0
 25 27  2  0  0  0  0
 25 47  1  0  0  0  0
 26 48  1  0  0  0  0
 27 49  1  0  0  0  0
 28 51  1  0  0  0  0
 28 52  1  0  0  0  0
 28 53  1  0  0  0  0
 29 54  1  0  0  0  0
 29 55  1  0  0  0  0
 29 56  1  0  0  0  0
M  END
$$$$
donepezil
  MOE2024           3D

 57 60  0  0  1  0  0  0  0  0999 V2000
    1.2820   -0.1220   -0.7120 O   0  0  0  0  0  0  0  0  0  0  0  0
   -2.4230    5.0760    0.2360 O   0  0  0  0  0  0  0  0  0  0  0  0
   -3.3510    2.6200   -0.3140 O   0  0  0  0  0  0  0  0  0  0  0  0
    7.6920    2.4860    0.7570 N   0  0  0  0  0  0  0  0  0  0  0  0
    5.0970    1.6180    0.5520 C   0  0  0  0  0  0  0  0  0  0  0  0
    3.6350    1.1340    0.6600 C   0  0  0  0  0  0  0  0  0  0  0  0
    2.6650    1.8120   -0.3350 C   0  0  2  0  0  0  0  0  0  0  0  0
    6.0460    0.6680    1.2980 C   0  0  0  0  0  0  0  0  0  0  0  0
    5.3210    3.0550    1.0700 C   0  0  0  0  0  0  0  0  0  0  0  0
    7.5220    1.0570    1.0970 C   0  0  0  0  0  0  0  0  0  0  0  0
    6.7680    3.3380    1.5070 C   0  0  0  0  0  0  0  0  0  0  0  0
    2.2360    3.2470    0.0640 C   0  0  0  0  0  0  0  0  0  0  0  0
    1.3470    1.0580   -0.4730 C   0  0  0  0  0  0  0  0  0  0  0  0
    0.7230    3.2330   -0.0190 C   0  0  0  0  0  0  0  0  0  0  0  0
    0.2600    1.9670   -0.3090 C   0  0  0  0  0  0  0  0  0  0  0  0
    9.0890    2.9220    0.9190 C   0  0  0  0  0  0  0  0  0  0  0  0
   -0.1440    4.2920    0.1680 C   0  0  0  0  0  0  0  0  0  0  0  0
   -1.1070    1.7410   -0.4090 C   0  0  0  0  0  0  0  0  0  0  0  0
   10.0340    2.1140    0.0370 C   0  0  0  0  0  0  0  0  0  0  0  0
   -1.5180    4.0760    0.0640 C   0  0  0  0  0  0  0  0  0  0  0  0
   -2.0000    2.7910   -0.2240 C   0  0  0  0  0  0  0  0  0  0  0  0
   11.1240    1.4560    0.5870 C   0  0  0  0  0  0  0  0  0  0  0  0
    9.8140    2.0340   -1.3300 C   0  0  0  0  0  0  0  0  0  0  0  0
   11.9830    0.7290   -0.2200 C   0  0  0  0  0  0  0  0  0  0  0  0
   10.6710    1.3080   -2.1380 C   0  0  0  0  0  0  0  0  0  0  0  0
   11.7570    0.6550   -1.5830 C   0  0  0  0  0  0  0  0  0  0  0  0
   -2.0430    6.4010    0.5270 C   0  0  0  0  0  0  0  0  0  0  0  0
   -3.9220    1.3620   -0.5970 C   0  0  0  0  0  0  0  0  0  0  0  0
    5.3880    1.5890   -0.4860 H   0  0  0  0  0  0  0  0  0  0  0  0
    3.6290    0.0800    0.4410 H   0  0  0  0  0  0  0  0  0  0  0  0
    3.2750    1.2440    1.6680 H   0  0  0  0  0  0  0  0  0  0  0  0
    3.1140    1.8310   -1.3120 H   0  0  0  0  0  0  0  0  0  0  0  0
    5.9100   -0.3440    0.9600 H   0  0  0  0  0  0  0  0  0  0  0  0
    5.8190    0.6890    2.3490 H   0  0  0  0  0  0  0  0  0  0  0  0
    4.6880    3.2490    1.9170 H   0  0  0  0  0  0  0  0  0  0  0  0
    5.0580    3.7520    0.2950 H   0  0  0  0  0  0  0  0  0  0  0  0
    8.0740    0.8170    1.9890 H   0  0  0  0  0  0  0  0  0  0  0  0
    7.9280    0.4710    0.2900 H   0  0  0  0  0  0  0  0  0  0  0  0
    6.9940    4.3770    1.3320 H   0  0  0  0  0  0  0  0  0  0  0  0
    6.8790    3.1400    2.5600 H   0  0  0  0  0  0  0  0  0  0  0  0
    2.5220    3.4820    1.0730 H   0  0  0  0  0  0  0  0  0  0  0  0
    2.6520    3.9760   -0.6090 H   0  0  0  0  0  0  0  0  0  0  0  0
    9.1700    3.9580    0.6390 H   0  0  0  0  0  0  0  0  0  0  0  0
    9.3780    2.8310    1.9520 H   0  0  0  0  0  0  0  0  0  0  0  0
    0.2570    5.2610    0.3910 H   0  0  0  0  0  0  0  0  0  0  0  0
   -1.4300    0.7420   -0.6340 H   0  0  0  0  0  0  0  0  0  0  0  0
   11.3100    1.5060    1.6450 H   0  0  0  0  0  0  0  0  0  0  0  0
    8.9640    2.5360   -1.7580 H   0  0  0  0  0  0  0  0  0  0  0  0
   12.8270    0.2210    0.2130 H   0  0  0  0  0  0  0  0  0  0  0  0
   10.4900    1.2510   -3.1970 H   0  0  0  0  0  0  0  0  0  0  0  0
   12.4240    0.0900   -2.2110 H   0  0  0  0  0  0  0  0  0  0  0  0
   -1.4340    6.7740   -0.2770 H   0  0  0  0  0  0  0  0  0  0  0  0
   -1.5080    6.4150    1.4590 H   0  0  0  0  0  0  0  0  0  0  0  0
   -2.9380    6.9920    0.6110 H   0  0  0  0  0  0  0  0  0  0  0  0
   -4.9910    1.4790   -0.6130 H   0  0  0  0  0  0  0  0  0  0  0  0
   -3.5760    1.0290   -1.5590 H   0  0  0  0  0  0  0  0  0  0  0  0
   -3.6430    0.6690    0.1770 H   0  0  0  0  0  0  0  0  0  0  0  0
  1 13  2  0  0  0  0
  2 20  1  0  0  0  0
  2 27  1  0  0  0  0
  3 21  1  0  0  0  0
  3 28  1  0  0  0  0
  4 10  1  0  0  0  0
  4 11  1  0  0  0  0
  4 16  1  0  0  0  0
  5  6  1  0  0  0  0
  5  8  1  0  0  0  0
  5  9  1  0  0  0  0
  5 29  1  0  0  0  0
  6  7  1  0  0  0  0
  6 30  1  0  0  0  0
  6 31  1  0  0  0  0
  7 12  1  0  0  0  0
  7 13  1  0  0  0  0
  7 32  1  0  0  0  0
  8 10  1  0  0  0  0
  8 33  1  0  0  0  0
  8 34  1  0  0  0  0
  9 11  1  0  0  0  0
  9 35  1  0  0  0  0
  9 36  1  0  0  0  0
 10 37  1  0  0  0  0
 10 38  1  0  0  0  0
 11 39  1  0  0  0  0
 11 40  1  0  0  0  0
 12 14  1  0  0  0  0
 12 41  1  0  0  0  0
 12 42  1  0  0  0  0
 13 15  1  0  0  0  0
 14 15  1  0  0  0  0
 14 17  2  0  0  0  0
 15 18  2  0  0  0  0
 16 19  1  0  0  0  0
 16 43  1  0  0  0  0
 16 44  1  0  0  0  0
 17 20  1  0  0  0  0
 17 45  1  0  0  0  0
 18 21  1  0  0  0  0
 18 46  1  0  0  0  0
 19 22  2  0  0  0  0
 19 23  1  0  0  0  0
 20 21  2  0  0  0  0
 22 24  1  0  0  0  0
 22 47  1  0  0  0  0
 23 25  2  0  0  0  0
 23 48  1  0  0  0  0
 24 26  2  0  0  0  0
 24 49  1  0  0  0  0
 25 26  1  0  0  0  0
 25 50  1  0  0  0  0
 26 51  1  0  0  0  0
 27 52  1  0  0  0  0
 27 53  1  0  0  0  0
 27 54  1  0  0  0  0
 28 55  1  0  0  0  0
 28 56  1  0  0  0  0
 28 57  1  0  0  0  0
M  END
$$$$
droperidol
  MOE2024           3D

 50 53  0  0  1  0  0  0  0  0999 V2000
   17.6220    2.0950    3.6060 F   0  0  0  0  0  0  0  0  0  0  0  0
    5.1640    2.9140   -1.1920 O   0  0  0  0  0  0  0  0  0  0  0  0
   15.0600    4.8960   -1.3620 O   0  0  0  0  0  0  0  0  0  0  0  0
   10.4200    1.7270   -1.4300 N   0  0  1  0  0  0  0  0  0  0  0  0
    6.4000    1.1980   -0.2130 N   0  0  0  0  0  0  0  0  0  0  0  0
    4.1930    1.3680    0.1430 N   0  0  0  0  0  0  0  0  0  0  0  0
    9.5360    2.9060   -1.5050 C   0  0  0  0  0  0  0  0  0  0  0  0
    8.3260    2.7260   -0.5810 C   0  0  0  0  0  0  0  0  0  0  0  0
    9.7470    0.5380   -1.9830 C   0  0  0  0  0  0  0  0  0  0  0  0
    7.6880    1.3570   -0.7660 C   0  0  0  0  0  0  0  0  0  0  0  0
   11.7080    1.9460   -2.0970 C   0  0  0  0  0  0  0  0  0  0  0  0
    8.3500    0.3870   -1.4100 C   0  0  0  0  0  0  0  0  0  0  0  0
   12.6110    2.8290   -1.2310 C   0  0  0  0  0  0  0  0  0  0  0  0
    5.9960    0.1510    0.6250 C   0  0  0  0  0  0  0  0  0  0  0  0
   14.0520    2.8460   -1.7650 C   0  0  0  0  0  0  0  0  0  0  0  0
    5.2560    1.9220   -0.4870 C   0  0  0  0  0  0  0  0  0  0  0  0
    4.6320    0.2590    0.8380 C   0  0  0  0  0  0  0  0  0  0  0  0
    6.7180   -0.8750    1.2210 C   0  0  0  0  0  0  0  0  0  0  0  0
   14.9480    3.7700   -0.9490 C   0  0  0  0  0  0  0  0  0  0  0  0
    3.9550   -0.6520    1.6340 C   0  0  0  0  0  0  0  0  0  0  0  0
    6.0480   -1.7890    2.0180 C   0  0  0  0  0  0  0  0  0  0  0  0
    4.6740   -1.6790    2.2220 C   0  0  0  0  0  0  0  0  0  0  0  0
   15.6270    3.3010    0.2460 C   0  0  0  0  0  0  0  0  0  0  0  0
   15.3680    2.0580    0.8440 C   0  0  0  0  0  0  0  0  0  0  0  0
   16.5940    4.1120    0.8550 C   0  0  0  0  0  0  0  0  0  0  0  0
   16.0390    1.6430    1.9810 C   0  0  0  0  0  0  0  0  0  0  0  0
   17.2750    3.7150    1.9920 C   0  0  0  0  0  0  0  0  0  0  0  0
   16.9860    2.4800    2.5370 C   0  0  0  0  0  0  0  0  0  0  0  0
    9.1960    3.0400   -2.5180 H   0  0  0  0  0  0  0  0  0  0  0  0
   10.0600    3.7950   -1.2040 H   0  0  0  0  0  0  0  0  0  0  0  0
    7.6210    3.5070   -0.7950 H   0  0  0  0  0  0  0  0  0  0  0  0
    8.6390    2.8320    0.4420 H   0  0  0  0  0  0  0  0  0  0  0  0
   10.3260   -0.3340   -1.7320 H   0  0  0  0  0  0  0  0  0  0  0  0
    9.6840    0.6110   -3.0560 H   0  0  0  0  0  0  0  0  0  0  0  0
   11.5580    2.3890   -3.0680 H   0  0  0  0  0  0  0  0  0  0  0  0
   12.1950    0.9940   -2.2320 H   0  0  0  0  0  0  0  0  0  0  0  0
    7.9290   -0.5880   -1.5780 H   0  0  0  0  0  0  0  0  0  0  0  0
   12.6000    2.4580   -0.2220 H   0  0  0  0  0  0  0  0  0  0  0  0
   12.2390    3.8380   -1.2260 H   0  0  0  0  0  0  0  0  0  0  0  0
   14.4650    1.8540   -1.7820 H   0  0  0  0  0  0  0  0  0  0  0  0
   14.0440    3.2030   -2.7800 H   0  0  0  0  0  0  0  0  0  0  0  0
    3.2500    1.7400    0.0560 H   0  0  0  0  0  0  0  0  0  0  0  0
    7.7790   -0.9460    1.0610 H   0  0  0  0  0  0  0  0  0  0  0  0
    2.8960   -0.5550    1.7870 H   0  0  0  0  0  0  0  0  0  0  0  0
    6.5930   -2.5910    2.4860 H   0  0  0  0  0  0  0  0  0  0  0  0
    4.1710   -2.3990    2.8450 H   0  0  0  0  0  0  0  0  0  0  0  0
   14.6290    1.3970    0.4290 H   0  0  0  0  0  0  0  0  0  0  0  0
   16.8130    5.0750    0.4240 H   0  0  0  0  0  0  0  0  0  0  0  0
   15.8370    0.6900    2.4350 H   0  0  0  0  0  0  0  0  0  0  0  0
   18.0160    4.3460    2.4490 H   0  0  0  0  0  0  0  0  0  0  0  0
  1 28  1  0  0  0  0
  2 16  2  0  0  0  0
  3 19  2  0  0  0  0
  4  7  1  0  0  0  0
  4  9  1  0  0  0  0
  4 11  1  0  0  0  0
  5 10  1  0  0  0  0
  5 14  1  0  0  0  0
  5 16  1  0  0  0  0
  6 16  1  0  0  0  0
  6 17  1  0  0  0  0
  6 42  1  0  0  0  0
  7  8  1  0  0  0  0
  7 29  1  0  0  0  0
  7 30  1  0  0  0  0
  8 10  1  0  0  0  0
  8 31  1  0  0  0  0
  8 32  1  0  0  0  0
  9 12  1  0  0  0  0
  9 33  1  0  0  0  0
  9 34  1  0  0  0  0
 10 12  2  0  0  0  0
 11 13  1  0  0  0  0
 11 35  1  0  0  0  0
 11 36  1  0  0  0  0
 12 37  1  0  0  0  0
 13 15  1  0  0  0  0
 13 38  1  0  0  0  0
 13 39  1  0  0  0  0
 14 17  1  0  0  0  0
 14 18  2  0  0  0  0
 15 19  1  0  0  0  0
 15 40  1  0  0  0  0
 15 41  1  0  0  0  0
 17 20  2  0  0  0  0
 18 21  1  0  0  0  0
 18 43  1  0  0  0  0
 19 23  1  0  0  0  0
 20 22  1  0  0  0  0
 20 44  1  0  0  0  0
 21 22  2  0  0  0  0
 21 45  1  0  0  0  0
 22 46  1  0  0  0  0
 23 24  1  0  0  0  0
 23 25  2  0  0  0  0
 24 26  2  0  0  0  0
 24 47  1  0  0  0  0
 25 27  1  0  0  0  0
 25 48  1  0  0  0  0
 26 28  1  0  0  0  0
 26 49  1  0  0  0  0
 27 28  2  0  0  0  0
 27 50  1  0  0  0  0
M  END
$$$$
duloxetine
  MOE2024           3D

 40 42  0  0  1  0  0  0  0  0999 V2000
   -6.1360    1.2030   -2.3750 S   0  0  0  0  0  0  0  0  0  0  0  0
   -3.2250    2.2420   -1.6970 O   0  0  0  0  0  0  0  0  0  0  0  0
   -6.3310    5.4020    0.1890 N   0  0  0  0  0  0  0  0  0  0  0  0
   -4.2050    2.3850   -0.6880 C   0  0  1  0  0  0  0  0  0  0  0  0
   -4.7920    3.7990   -0.7770 C   0  0  0  0  0  0  0  0  0  0  0  0
   -5.9140    4.0070    0.2370 C   0  0  0  0  0  0  0  0  0  0  0  0
   -5.2440    1.2860   -0.8600 C   0  0  0  0  0  0  0  0  0  0  0  0
   -1.9380    2.3620   -1.3160 C   0  0  0  0  0  0  0  0  0  0  0  0
   -1.2710    1.2570   -0.7280 C   0  0  0  0  0  0  0  0  0  0  0  0
    0.0550    1.4440   -0.2790 C   0  0  0  0  0  0  0  0  0  0  0  0
   -5.6400    0.3010   -0.0300 C   0  0  0  0  0  0  0  0  0  0  0  0
   -1.3030    3.5610   -1.5060 C   0  0  0  0  0  0  0  0  0  0  0  0
   -1.8540   -0.0200   -0.5730 C   0  0  0  0  0  0  0  0  0  0  0  0
    0.6730    2.6970   -0.4720 C   0  0  0  0  0  0  0  0  0  0  0  0
    0.0150    3.7320   -1.0780 C   0  0  0  0  0  0  0  0  0  0  0  0
    0.7230    0.3690    0.3420 C   0  0  0  0  0  0  0  0  0  0  0  0
   -6.6610   -0.5410   -0.5760 C   0  0  0  0  0  0  0  0  0  0  0  0
   -7.0390   -0.1950   -1.8200 C   0  0  0  0  0  0  0  0  0  0  0  0
   -7.4520    5.6680    1.0880 C   0  0  0  0  0  0  0  0  0  0  0  0
   -1.1810   -1.0470    0.0280 C   0  0  0  0  0  0  0  0  0  0  0  0
    0.1220   -0.8490    0.4970 C   0  0  0  0  0  0  0  0  0  0  0  0
   -3.7270    2.2570    0.2680 H   0  0  0  0  0  0  0  0  0  0  0  0
   -5.1820    3.9610   -1.7660 H   0  0  0  0  0  0  0  0  0  0  0  0
   -4.0080    4.5070   -0.5860 H   0  0  0  0  0  0  0  0  0  0  0  0
   -5.5720    3.7640    1.2300 H   0  0  0  0  0  0  0  0  0  0  0  0
   -6.7520    3.3740   -0.0080 H   0  0  0  0  0  0  0  0  0  0  0  0
   -5.2530    0.1220    0.9580 H   0  0  0  0  0  0  0  0  0  0  0  0
   -5.5350    6.0000    0.4500 H   0  0  0  0  0  0  0  0  0  0  0  0
   -1.8170    4.3780   -1.9800 H   0  0  0  0  0  0  0  0  0  0  0  0
   -2.8490   -0.1800   -0.9490 H   0  0  0  0  0  0  0  0  0  0  0  0
    1.6860    2.8240   -0.1360 H   0  0  0  0  0  0  0  0  0  0  0  0
    0.4980    4.6820   -1.2310 H   0  0  0  0  0  0  0  0  0  0  0  0
    1.7270    0.5240    0.6940 H   0  0  0  0  0  0  0  0  0  0  0  0
   -7.0600   -1.3630   -0.0080 H   0  0  0  0  0  0  0  0  0  0  0  0
   -7.7640   -0.6130   -2.4940 H   0  0  0  0  0  0  0  0  0  0  0  0
   -7.7340    6.7040    1.0150 H   0  0  0  0  0  0  0  0  0  0  0  0
   -8.2980    5.0620    0.8100 H   0  0  0  0  0  0  0  0  0  0  0  0
   -7.1780    5.4500    2.1070 H   0  0  0  0  0  0  0  0  0  0  0  0
   -1.6380   -2.0140    0.1420 H   0  0  0  0  0  0  0  0  0  0  0  0
    0.6380   -1.6660    0.9700 H   0  0  0  0  0  0  0  0  0  0  0  0
  1  7  1  0  0  0  0
  1 18  1  0  0  0  0
  2  4  1  0  0  0  0
  2  8  1  0  0  0  0
  3  6  1  0  0  0  0
  3 19  1  0  0  0  0
  3 28  1  0  0  0  0
  4  5  1  0  0  0  0
  4  7  1  0  0  0  0
  4 22  1  0  0  0  0
  5  6  1  0  0  0  0
  5 23  1  0  0  0  0
  5 24  1  0  0  0  0
  6 25  1  0  0  0  0
  6 26  1  0  0  0  0
  7 11  2  0  0  0  0
  8  9  1  0  0  0  0
  8 12  2  0  0  0  0
  9 10  1  0  0  0  0
  9 13  2  0  0  0  0
 10 14  1  0  0  0  0
 10 16  2  0  0  0  0
 11 17  1  0  0  0  0
 11 27  1  0  0  0  0
 12 15  1  0  0  0  0
 12 29  1  0  0  0  0
 13 20  1  0  0  0  0
 13 30  1  0  0  0  0
 14 15  2  0  0  0  0
 14 31  1  0  0  0  0
 15 32  1  0  0  0  0
 16 21  1  0  0  0  0
 16 33  1  0  0  0  0
 17 18  2  0  0  0  0
 17 34  1  0  0  0  0
 18 35  1  0  0  0  0
 19 36  1  0  0  0  0
 19 37  1  0  0  0  0
 19 38  1  0  0  0  0
 20 21  2  0  0  0  0
 20 39  1  0  0  0  0
 21 40  1  0  0  0  0
M  END
$$$$
flecainide
  MOE2024           3D

 48 49  0  0  1  0  0  0  0  0999 V2000
    3.4230    7.4680   -0.1840 F   0  0  0  0  0  0  0  0  0  0  0  0
    5.0790    8.4830    0.6760 F   0  0  0  0  0  0  0  0  0  0  0  0
    5.0390    8.1010   -1.4130 F   0  0  0  0  0  0  0  0  0  0  0  0
    2.5440   -3.0110    0.1920 F   0  0  0  0  0  0  0  0  0  0  0  0
    4.6530   -2.9290   -0.0430 F   0  0  0  0  0  0  0  0  0  0  0  0
    3.7660   -2.4010    1.8180 F   0  0  0  0  0  0  0  0  0  0  0  0
    7.4110    4.4830    1.4990 O   0  0  0  0  0  0  0  0  0  0  0  0
    5.1040    5.2460   -0.9540 O   0  0  0  0  0  0  0  0  0  0  0  0
    4.6350   -0.0660    0.3400 O   0  0  0  0  0  0  0  0  0  0  0  0
   11.9200    4.1130    1.0310 N   0  0  0  0  0  0  0  0  0  0  0  0
    8.3920    3.8000   -0.3790 N   0  0  0  0  0  0  0  0  0  0  0  0
   10.6030    3.4990    0.7910 C   0  0  2  0  0  0  0  0  0  0  0  0
   10.8060    2.0680    0.2560 C   0  0  0  0  0  0  0  0  0  0  0  0
   11.7190    2.0220   -0.9760 C   0  0  0  0  0  0  0  0  0  0  0  0
   13.0410    2.7350   -0.6700 C   0  0  0  0  0  0  0  0  0  0  0  0
   12.8050    4.1500   -0.1370 C   0  0  0  0  0  0  0  0  0  0  0  0
    9.7290    4.4000   -0.1080 C   0  0  0  0  0  0  0  0  0  0  0  0
    7.3100    3.8830    0.4480 C   0  0  0  0  0  0  0  0  0  0  0  0
    6.0650    3.2610    0.0720 C   0  0  0  0  0  0  0  0  0  0  0  0
    5.0410    3.9380   -0.6090 C   0  0  0  0  0  0  0  0  0  0  0  0
    5.8650    1.9140    0.3700 C   0  0  0  0  0  0  0  0  0  0  0  0
    4.7130    1.2460    0.0000 C   0  0  0  0  0  0  0  0  0  0  0  0
    3.8890    3.2660   -0.9890 C   0  0  0  0  0  0  0  0  0  0  0  0
    3.7150    1.9290   -0.6900 C   0  0  0  0  0  0  0  0  0  0  0  0
    5.4540    6.2330    0.0170 C   0  0  0  0  0  0  0  0  0  0  0  0
    3.4870   -0.8460    0.0250 C   0  0  0  0  0  0  0  0  0  0  0  0
    4.7460    7.5730   -0.2300 C   0  0  0  0  0  0  0  0  0  0  0  0
    3.6200   -2.3000    0.5030 C   0  0  0  0  0  0  0  0  0  0  0  0
   10.0980    3.4350    1.7410 H   0  0  0  0  0  0  0  0  0  0  0  0
   11.2430    1.4760    1.0400 H   0  0  0  0  0  0  0  0  0  0  0  0
    9.8560    1.6230    0.0240 H   0  0  0  0  0  0  0  0  0  0  0  0
   11.9100    0.9990   -1.2520 H   0  0  0  0  0  0  0  0  0  0  0  0
   11.2340    2.5040   -1.8070 H   0  0  0  0  0  0  0  0  0  0  0  0
   13.5970    2.1740    0.0600 H   0  0  0  0  0  0  0  0  0  0  0  0
   13.6380    2.7880   -1.5640 H   0  0  0  0  0  0  0  0  0  0  0  0
   12.3750    4.7700   -0.9040 H   0  0  0  0  0  0  0  0  0  0  0  0
   13.7450    4.5910    0.1500 H   0  0  0  0  0  0  0  0  0  0  0  0
   12.3850    3.5550    1.7560 H   0  0  0  0  0  0  0  0  0  0  0  0
   10.2190    4.5780   -1.0470 H   0  0  0  0  0  0  0  0  0  0  0  0
    9.5960    5.3460    0.3880 H   0  0  0  0  0  0  0  0  0  0  0  0
    8.3140    3.2660   -1.2460 H   0  0  0  0  0  0  0  0  0  0  0  0
    6.6280    1.3770    0.9040 H   0  0  0  0  0  0  0  0  0  0  0  0
    3.1240    3.8050   -1.5230 H   0  0  0  0  0  0  0  0  0  0  0  0
    2.8070    1.4460   -1.0000 H   0  0  0  0  0  0  0  0  0  0  0  0
    6.5150    6.3880   -0.0290 H   0  0  0  0  0  0  0  0  0  0  0  0
    5.1820    5.8710    0.9920 H   0  0  0  0  0  0  0  0  0  0  0  0
    3.3590   -0.8410   -1.0410 H   0  0  0  0  0  0  0  0  0  0  0  0
    2.6350   -0.3980    0.5020 H   0  0  0  0  0  0  0  0  0  0  0  0
  1 27  1  0  0  0  0
  2 27  1  0  0  0  0
  3 27  1  0  0  0  0
  4 28  1  0  0  0  0
  5 28  1  0  0  0  0
  6 28  1  0  0  0  0
  7 18  2  0  0  0  0
  8 20  1  0  0  0  0
  8 25  1  0  0  0  0
  9 22  1  0  0  0  0
  9 26  1  0  0  0  0
 10 12  1  0  0  0  0
 10 16  1  0  0  0  0
 10 38  1  0  0  0  0
 11 17  1  0  0  0  0
 11 18  1  0  0  0  0
 11 41  1  0  0  0  0
 12 13  1  0  0  0  0
 12 17  1  0  0  0  0
 12 29  1  0  0  0  0
 13 14  1  0  0  0  0
 13 30  1  0  0  0  0
 13 31  1  0  0  0  0
 14 15  1  0  0  0  0
 14 32  1  0  0  0  0
 14 33  1  0  0  0  0
 15 16  1  0  0  0  0
 15 34  1  0  0  0  0
 15 35  1  0  0  0  0
 16 36  1  0  0  0  0
 16 37  1  0  0  0  0
 17 39  1  0  0  0  0
 17 40  1  0  0  0  0
 18 19  1  0  0  0  0
 19 20  1  0  0  0  0
 19 21  2  0  0  0  0
 20 23  2  0  0  0  0
 21 22  1  0  0  0  0
 21 42  1  0  0  0  0
 22 24  2  0  0  0  0
 23 24  1  0  0  0  0
 23 43  1  0  0  0  0
 24 44  1  0  0  0  0
 25 27  1  0  0  0  0
 25 45  1  0  0  0  0
 25 46  1  0  0  0  0
 26 28  1  0  0  0  0
 26 47  1  0  0  0  0
 26 48  1  0  0  0  0
M  END
$$$$
halofantrine
  MOE2024           3D

 63 65  0  0  1  0  0  0  0  0999 V2000
    2.4310    6.8420   -3.1510 Cl  0  0  0  0  0  0  0  0  0  0  0  0
   -2.8920    7.2380   -3.4920 Cl  0  0  0  0  0  0  0  0  0  0  0  0
   -4.4450    2.3620    0.9440 F   0  0  0  0  0  0  0  0  0  0  0  0
   -3.6350    0.4050    1.0980 F   0  0  0  0  0  0  0  0  0  0  0  0
   -3.5360    1.7280    2.7560 F   0  0  0  0  0  0  0  0  0  0  0  0
    3.1890    1.6490   -0.2580 O   0  0  0  0  0  0  0  0  0  0  0  0
    6.7630    3.7740    0.6260 N   0  0  0  0  0  0  0  0  0  0  0  0
    5.5450    2.9730    0.8260 C   0  0  0  0  0  0  0  0  0  0  0  0
    4.3730    3.6540    0.1120 C   0  0  0  0  0  0  0  0  0  0  0  0
    3.0540    2.8970    0.3140 C   0  0  1  0  0  0  0  0  0  0  0  0
    6.8810    4.8490    1.6230 C   0  0  0  0  0  0  0  0  0  0  0  0
    7.9690    2.9320    0.5880 C   0  0  0  0  0  0  0  0  0  0  0  0
    1.7910    3.5460   -0.2790 C   0  0  0  0  0  0  0  0  0  0  0  0
    7.6320    6.0370    1.0150 C   0  0  0  0  0  0  0  0  0  0  0  0
    8.1490    2.3450   -0.8150 C   0  0  0  0  0  0  0  0  0  0  0  0
    0.5000    3.0670    0.1200 C   0  0  0  0  0  0  0  0  0  0  0  0
   -0.6610    3.6970   -0.3830 C   0  0  0  0  0  0  0  0  0  0  0  0
    1.8780    4.5730   -1.1660 C   0  0  0  0  0  0  0  0  0  0  0  0
   -0.5410    4.7790   -1.3330 C   0  0  0  0  0  0  0  0  0  0  0  0
    0.7420    5.2160   -1.7230 C   0  0  0  0  0  0  0  0  0  0  0  0
    7.7060    7.2100    2.0010 C   0  0  0  0  0  0  0  0  0  0  0  0
    9.4360    1.5160   -0.9080 C   0  0  0  0  0  0  0  0  0  0  0  0
    0.3360    1.9820    1.0020 C   0  0  0  0  0  0  0  0  0  0  0  0
   -1.9110    3.2280    0.0700 C   0  0  0  0  0  0  0  0  0  0  0  0
   -2.0520    2.1760    0.9500 C   0  0  0  0  0  0  0  0  0  0  0  0
   -1.6470    5.4360   -1.9110 C   0  0  0  0  0  0  0  0  0  0  0  0
   -0.8960    1.5480    1.4100 C   0  0  0  0  0  0  0  0  0  0  0  0
    0.8560    6.2740   -2.6490 C   0  0  0  0  0  0  0  0  0  0  0  0
    8.4490    8.3990    1.3860 C   0  0  0  0  0  0  0  0  0  0  0  0
    9.6160    0.9350   -2.3140 C   0  0  0  0  0  0  0  0  0  0  0  0
   -1.4900    6.4600   -2.8090 C   0  0  0  0  0  0  0  0  0  0  0  0
   -0.2340    6.8960   -3.1920 C   0  0  0  0  0  0  0  0  0  0  0  0
   -3.4220    1.6700    1.4350 C   0  0  0  0  0  0  0  0  0  0  0  0
    5.3420    2.8590    1.8780 H   0  0  0  0  0  0  0  0  0  0  0  0
    5.6730    1.9890    0.4080 H   0  0  0  0  0  0  0  0  0  0  0  0
    4.2530    4.6490    0.4990 H   0  0  0  0  0  0  0  0  0  0  0  0
    4.6060    3.7200   -0.9350 H   0  0  0  0  0  0  0  0  0  0  0  0
    2.9170    2.7580    1.3730 H   0  0  0  0  0  0  0  0  0  0  0  0
    5.9020    5.1880    1.9170 H   0  0  0  0  0  0  0  0  0  0  0  0
    7.3850    4.4890    2.5040 H   0  0  0  0  0  0  0  0  0  0  0  0
    7.9000    2.1480    1.3240 H   0  0  0  0  0  0  0  0  0  0  0  0
    8.8390    3.5240    0.8160 H   0  0  0  0  0  0  0  0  0  0  0  0
    7.1150    6.3500    0.1240 H   0  0  0  0  0  0  0  0  0  0  0  0
    8.6280    5.7400    0.7430 H   0  0  0  0  0  0  0  0  0  0  0  0
    8.1920    3.1540   -1.5220 H   0  0  0  0  0  0  0  0  0  0  0  0
    7.3090    1.7220   -1.0630 H   0  0  0  0  0  0  0  0  0  0  0  0
    2.8320    4.9450   -1.4840 H   0  0  0  0  0  0  0  0  0  0  0  0
    6.7100    7.5180    2.2720 H   0  0  0  0  0  0  0  0  0  0  0  0
    8.2160    6.8980    2.8970 H   0  0  0  0  0  0  0  0  0  0  0  0
    9.4000    0.7100   -0.1940 H   0  0  0  0  0  0  0  0  0  0  0  0
   10.2830    2.1360   -0.6710 H   0  0  0  0  0  0  0  0  0  0  0  0
    1.1930    1.4550    1.3780 H   0  0  0  0  0  0  0  0  0  0  0  0
   -2.8060    3.7030   -0.2780 H   0  0  0  0  0  0  0  0  0  0  0  0
    3.0990    1.7400   -1.2250 H   0  0  0  0  0  0  0  0  0  0  0  0
   -2.6540    5.1590   -1.6730 H   0  0  0  0  0  0  0  0  0  0  0  0
   -0.9720    0.7140    2.0890 H   0  0  0  0  0  0  0  0  0  0  0  0
    7.9440    8.7390    0.4990 H   0  0  0  0  0  0  0  0  0  0  0  0
    9.4550    8.1200    1.1260 H   0  0  0  0  0  0  0  0  0  0  0  0
    8.4900    9.2120    2.0890 H   0  0  0  0  0  0  0  0  0  0  0  0
    8.7910    0.2920   -2.5630 H   0  0  0  0  0  0  0  0  0  0  0  0
    9.6720    1.7250   -3.0420 H   0  0  0  0  0  0  0  0  0  0  0  0
   10.5240    0.3610   -2.3610 H   0  0  0  0  0  0  0  0  0  0  0  0
   -0.1310    7.7010   -3.8970 H   0  0  0  0  0  0  0  0  0  0  0  0
  1 28  1  0  0  0  0
  2 31  1  0  0  0  0
  3 33  1  0  0  0  0
  4 33  1  0  0  0  0
  5 33  1  0  0  0  0
  6 10  1  0  0  0  0
  6 54  1  0  0  0  0
  7  8  1  0  0  0  0
  7 11  1  0  0  0  0
  7 12  1  0  0  0  0
  8  9  1  0  0  0  0
  8 34  1  0  0  0  0
  8 35  1  0  0  0  0
  9 10  1  0  0  0  0
  9 36  1  0  0  0  0
  9 37  1  0  0  0  0
 10 13  1  0  0  0  0
 10 38  1  0  0  0  0
 11 14  1  0  0  0  0
 11 39  1  0  0  0  0
 11 40  1  0  0  0  0
 12 15  1  0  0  0  0
 12 41  1  0  0  0  0
 12 42  1  0  0  0  0
 13 16  1  0  0  0  0
 13 18  2  0  0  0  0
 14 21  1  0  0  0  0
 14 43  1  0  0  0  0
 14 44  1  0  0  0  0
 15 22  1  0  0  0  0
 15 45  1  0  0  0  0
 15 46  1  0  0  0  0
 16 17  1  0  0  0  0
 16 23  2  0  0  0  0
 17 19  1  0  0  0  0
 17 24  2  0  0  0  0
 18 20  1  0  0  0  0
 18 47  1  0  0  0  0
 19 20  1  0  0  0  0
 19 26  2  0  0  0  0
 20 28  2  0  0  0  0
 21 29  1  0  0  0  0
 21 48  1  0  0  0  0
 21 49  1  0  0  0  0
 22 30  1  0  0  0  0
 22 50  1  0  0  0  0
 22 51  1  0  0  0  0
 23 27  1  0  0  0  0
 23 52  1  0  0  0  0
 24 25  1  0  0  0  0
 24 53  1  0  0  0  0
 25 27  2  0  0  0  0
 25 33  1  0  0  0  0
 26 31  1  0  0  0  0
 26 55  1  0  0  0  0
 27 56  1  0  0  0  0
 28 32  1  0  0  0  0
 29 57  1  0  0  0  0
 29 58  1  0  0  0  0
 29 59  1  0  0  0  0
 30 60  1  0  0  0  0
 30 61  1  0  0  0  0
 30 62  1  0  0  0  0
 31 32  2  0  0  0  0
 32 63  1  0  0  0  0
M  END
$$$$
Haloperidol
  MOE2024           3D

 49 51  0  0  0  0  0  0  0  0999 V2000
    0.5560    0.4430    1.0220 Cl  0  0  0  0  0  0  0  0  0  0  0  0
   15.7940   -4.2160    3.6130 F   0  0  0  0  0  0  0  0  0  0  0  0
    6.9870   -0.7290    1.4270 O   0  0  0  0  0  0  0  0  0  0  0  0
   14.5050   -0.4110   -1.1770 O   0  0  0  0  0  0  0  0  0  0  0  0
    8.9590   -1.3970   -0.9950 N   0  0  0  0  0  0  0  0  0  0  0  0
    6.4540   -0.6650    0.1540 C   0  0  0  0  0  0  0  0  0  0  0  0
    7.2500    0.4120   -0.5990 C   0  0  0  0  0  0  0  0  0  0  0  0
    6.6360   -2.0390   -0.5210 C   0  0  0  0  0  0  0  0  0  0  0  0
    8.7340    0.0470   -0.7650 C   0  0  0  0  0  0  0  0  0  0  0  0
    7.7930   -2.1020   -1.5290 C   0  0  0  0  0  0  0  0  0  0  0  0
   10.1790   -1.6780   -1.7550 C   0  0  0  0  0  0  0  0  0  0  0  0
    4.9590   -0.3440    0.3470 C   0  0  0  0  0  0  0  0  0  0  0  0
   11.4100   -1.2740   -0.9400 C   0  0  0  0  0  0  0  0  0  0  0  0
    4.3170    0.7160   -0.2930 C   0  0  0  0  0  0  0  0  0  0  0  0
    4.2090   -1.1550    1.1970 C   0  0  0  0  0  0  0  0  0  0  0  0
   12.7030   -1.8190   -1.5680 C   0  0  0  0  0  0  0  0  0  0  0  0
    2.9690    0.9580   -0.0870 C   0  0  0  0  0  0  0  0  0  0  0  0
    2.8610   -0.9200    1.4080 C   0  0  0  0  0  0  0  0  0  0  0  0
   13.9360   -1.3960   -0.7810 C   0  0  0  0  0  0  0  0  0  0  0  0
    2.2540    0.1380    0.7620 C   0  0  0  0  0  0  0  0  0  0  0  0
   14.3920   -2.1540    0.3710 C   0  0  0  0  0  0  0  0  0  0  0  0
   13.6570   -3.2040    0.9450 C   0  0  0  0  0  0  0  0  0  0  0  0
   15.6230   -1.8420    0.9620 C   0  0  0  0  0  0  0  0  0  0  0  0
   14.1260   -3.9060    2.0410 C   0  0  0  0  0  0  0  0  0  0  0  0
   16.1080   -2.5320    2.0580 C   0  0  0  0  0  0  0  0  0  0  0  0
   15.3480   -3.5580    2.5810 C   0  0  0  0  0  0  0  0  0  0  0  0
    6.8350    0.5260   -1.5840 H   0  0  0  0  0  0  0  0  0  0  0  0
    7.1650    1.3600   -0.1020 H   0  0  0  0  0  0  0  0  0  0  0  0
    5.7390   -2.2900   -1.0580 H   0  0  0  0  0  0  0  0  0  0  0  0
    6.7780   -2.7960    0.2290 H   0  0  0  0  0  0  0  0  0  0  0  0
    9.1430    0.6220   -1.5790 H   0  0  0  0  0  0  0  0  0  0  0  0
    9.2620    0.3210    0.1330 H   0  0  0  0  0  0  0  0  0  0  0  0
    7.5000   -1.6540   -2.4630 H   0  0  0  0  0  0  0  0  0  0  0  0
    8.0380   -3.1350   -1.7110 H   0  0  0  0  0  0  0  0  0  0  0  0
   10.2290   -2.7360   -1.9500 H   0  0  0  0  0  0  0  0  0  0  0  0
   10.1600   -1.1600   -2.7000 H   0  0  0  0  0  0  0  0  0  0  0  0
   11.4760   -0.2010   -0.8900 H   0  0  0  0  0  0  0  0  0  0  0  0
   11.3030   -1.6530    0.0610 H   0  0  0  0  0  0  0  0  0  0  0  0
    6.6890    0.0540    1.9200 H   0  0  0  0  0  0  0  0  0  0  0  0
    4.8450    1.3710   -0.9610 H   0  0  0  0  0  0  0  0  0  0  0  0
    4.6810   -1.9810    1.7030 H   0  0  0  0  0  0  0  0  0  0  0  0
   12.7950   -1.4320   -2.5680 H   0  0  0  0  0  0  0  0  0  0  0  0
   12.6660   -2.8900   -1.6450 H   0  0  0  0  0  0  0  0  0  0  0  0
    2.4730    1.7750   -0.5790 H   0  0  0  0  0  0  0  0  0  0  0  0
    2.2870   -1.5480    2.0650 H   0  0  0  0  0  0  0  0  0  0  0  0
   12.7010   -3.4850    0.5420 H   0  0  0  0  0  0  0  0  0  0  0  0
   16.2100   -1.0380    0.5480 H   0  0  0  0  0  0  0  0  0  0  0  0
   13.5580   -4.7090    2.4770 H   0  0  0  0  0  0  0  0  0  0  0  0
   17.0560   -2.2830    2.5020 H   0  0  0  0  0  0  0  0  0  0  0  0
  1 20  1  0  0  0  0
  2 26  1  0  0  0  0
  3  6  1  0  0  0  0
  3 39  1  0  0  0  0
  4 19  2  0  0  0  0
  5  9  1  0  0  0  0
  5 10  1  0  0  0  0
  5 11  1  0  0  0  0
  6  7  1  0  0  0  0
  6  8  1  0  0  0  0
  6 12  1  0  0  0  0
  7  9  1  0  0  0  0
  7 27  1  0  0  0  0
  7 28  1  0  0  0  0
  8 10  1  0  0  0  0
  8 29  1  0  0  0  0
  8 30  1  0  0  0  0
  9 31  1  0  0  0  0
  9 32  1  0  0  0  0
 10 33  1  0  0  0  0
 10 34  1  0  0  0  0
 11 13  1  0  0  0  0
 11 35  1  0  0  0  0
 11 36  1  0  0  0  0
 12 14  2  0  0  0  0
 12 15  1  0  0  0  0
 13 16  1  0  0  0  0
 13 37  1  0  0  0  0
 13 38  1  0  0  0  0
 14 17  1  0  0  0  0
 14 40  1  0  0  0  0
 15 18  2  0  0  0  0
 15 41  1  0  0  0  0
 16 19  1  0  0  0  0
 16 42  1  0  0  0  0
 16 43  1  0  0  0  0
 17 20  2  0  0  0  0
 17 44  1  0  0  0  0
 18 20  1  0  0  0  0
 18 45  1  0  0  0  0
 19 21  1  0  0  0  0
 21 22  2  0  0  0  0
 21 23  1  0  0  0  0
 22 24  1  0  0  0  0
 22 46  1  0  0  0  0
 23 25  2  0  0  0  0
 23 47  1  0  0  0  0
 24 26  2  0  0  0  0
 24 48  1  0  0  0  0
 25 26  1  0  0  0  0
 25 49  1  0  0  0  0
M  END
$$$$
Ibutilide
  MOE2024           3D

 62 62  0  0  1  0  0  0  0  0999 V2000
   -1.6510   -7.1770   -1.1210 S   0  0  0  0  0  0  0  0  0  0  0  0
    4.8020   -4.9800    2.1930 O   0  0  0  0  0  0  0  0  0  0  0  0
   -0.8850   -7.9950   -2.0280 O   0  0  0  0  0  0  0  0  0  0  0  0
   -2.9210   -6.6160   -1.4990 O   0  0  0  0  0  0  0  0  0  0  0  0
    9.1330   -2.9710   -0.0750 N   0  0  2  0  0  0  0  0  0  0  0  0
   -0.7080   -5.8110   -0.6910 N   0  0  0  0  0  0  0  0  0  0  0  0
    9.9200   -3.9840   -0.7950 C   0  0  0  0  0  0  0  0  0  0  0  0
    7.7090   -3.0320   -0.4330 C   0  0  0  0  0  0  0  0  0  0  0  0
   11.1200   -4.4090    0.0560 C   0  0  0  0  0  0  0  0  0  0  0  0
    7.0100   -4.1090    0.4020 C   0  0  0  0  0  0  0  0  0  0  0  0
   11.9300   -5.5110   -0.6390 C   0  0  0  0  0  0  0  0  0  0  0  0
    5.5110   -4.1820    0.0670 C   0  0  0  0  0  0  0  0  0  0  0  0
   13.1300   -5.9380    0.2160 C   0  0  0  0  0  0  0  0  0  0  0  0
    9.6860   -1.6220   -0.2590 C   0  0  0  0  0  0  0  0  0  0  0  0
    4.7750   -5.2790    0.8490 C   0  0  2  0  0  0  0  0  0  0  0  0
   13.9420   -7.0380   -0.4780 C   0  0  0  0  0  0  0  0  0  0  0  0
    3.3120   -5.4150    0.4380 C   0  0  0  0  0  0  0  0  0  0  0  0
   15.1410   -7.4640    0.3770 C   0  0  0  0  0  0  0  0  0  0  0  0
    9.3630   -0.7710    0.9660 C   0  0  0  0  0  0  0  0  0  0  0  0
    2.4410   -4.3330    0.4680 C   0  0  0  0  0  0  0  0  0  0  0  0
    2.8290   -6.6470    0.0200 C   0  0  0  0  0  0  0  0  0  0  0  0
   15.9510   -8.5620   -0.3170 C   0  0  0  0  0  0  0  0  0  0  0  0
    1.1210   -4.4850    0.0860 C   0  0  0  0  0  0  0  0  0  0  0  0
    1.5080   -6.7950   -0.3610 C   0  0  0  0  0  0  0  0  0  0  0  0
    0.6310   -5.7160   -0.3310 C   0  0  0  0  0  0  0  0  0  0  0  0
   -1.8380   -8.0070    0.4420 C   0  0  0  0  0  0  0  0  0  0  0  0
   10.2450   -3.5970   -1.7460 H   0  0  0  0  0  0  0  0  0  0  0  0
    9.3180   -4.8560   -0.9810 H   0  0  0  0  0  0  0  0  0  0  0  0
    7.5990   -3.2320   -1.4860 H   0  0  0  0  0  0  0  0  0  0  0  0
    7.2350   -2.0880   -0.2250 H   0  0  0  0  0  0  0  0  0  0  0  0
   10.7570   -4.7730    1.0020 H   0  0  0  0  0  0  0  0  0  0  0  0
   11.7570   -3.5640    0.2400 H   0  0  0  0  0  0  0  0  0  0  0  0
    7.1360   -3.8690    1.4440 H   0  0  0  0  0  0  0  0  0  0  0  0
    7.4620   -5.0670    0.2210 H   0  0  0  0  0  0  0  0  0  0  0  0
   11.2960   -6.3640   -0.8140 H   0  0  0  0  0  0  0  0  0  0  0  0
   12.2800   -5.1510   -1.5910 H   0  0  0  0  0  0  0  0  0  0  0  0
    5.0530   -3.2290    0.2550 H   0  0  0  0  0  0  0  0  0  0  0  0
    5.4010   -4.3950   -0.9820 H   0  0  0  0  0  0  0  0  0  0  0  0
   13.7630   -5.0850    0.3940 H   0  0  0  0  0  0  0  0  0  0  0  0
   12.7790   -6.2980    1.1680 H   0  0  0  0  0  0  0  0  0  0  0  0
    9.2900   -1.1720   -1.1540 H   0  0  0  0  0  0  0  0  0  0  0  0
   10.7570   -1.6710   -0.3580 H   0  0  0  0  0  0  0  0  0  0  0  0
    5.2900   -6.2170    0.7210 H   0  0  0  0  0  0  0  0  0  0  0  0
   13.3090   -7.8910   -0.6560 H   0  0  0  0  0  0  0  0  0  0  0  0
   14.2930   -6.6780   -1.4300 H   0  0  0  0  0  0  0  0  0  0  0  0
   15.7770   -6.6140    0.5560 H   0  0  0  0  0  0  0  0  0  0  0  0
   14.7940   -7.8280    1.3300 H   0  0  0  0  0  0  0  0  0  0  0  0
    9.8200    0.1960    0.8640 H   0  0  0  0  0  0  0  0  0  0  0  0
    8.3040   -0.6360    1.0770 H   0  0  0  0  0  0  0  0  0  0  0  0
    9.7540   -1.2440    1.8490 H   0  0  0  0  0  0  0  0  0  0  0  0
    2.7850   -3.3640    0.7860 H   0  0  0  0  0  0  0  0  0  0  0  0
    3.4840   -7.5010   -0.0120 H   0  0  0  0  0  0  0  0  0  0  0  0
   16.3270   -8.2120   -1.2620 H   0  0  0  0  0  0  0  0  0  0  0  0
   15.3390   -9.4310   -0.4860 H   0  0  0  0  0  0  0  0  0  0  0  0
   16.7870   -8.8470    0.2980 H   0  0  0  0  0  0  0  0  0  0  0  0
    4.0270   -4.4280    2.4020 H   0  0  0  0  0  0  0  0  0  0  0  0
    0.4630   -3.6370    0.1150 H   0  0  0  0  0  0  0  0  0  0  0  0
    1.1730   -7.7600   -0.6890 H   0  0  0  0  0  0  0  0  0  0  0  0
   -1.2470   -4.9620   -0.8260 H   0  0  0  0  0  0  0  0  0  0  0  0
   -2.3020   -7.3550    1.1550 H   0  0  0  0  0  0  0  0  0  0  0  0
   -2.4520   -8.8780    0.3220 H   0  0  0  0  0  0  0  0  0  0  0  0
   -0.8820   -8.3090    0.8200 H   0  0  0  0  0  0  0  0  0  0  0  0
  1  3  2  0  0  0  0
  1  4  2  0  0  0  0
  1  6  1  0  0  0  0
  1 26  1  0  0  0  0
  2 15  1  0  0  0  0
  2 56  1  0  0  0  0
  5  7  1  0  0  0  0
  5  8  1  0  0  0  0
  5 14  1  0  0  0  0
  6 25  1  0  0  0  0
  6 59  1  0  0  0  0
  7  9  1  0  0  0  0
  7 27  1  0  0  0  0
  7 28  1  0  0  0  0
  8 10  1  0  0  0  0
  8 29  1  0  0  0  0
  8 30  1  0  0  0  0
  9 11  1  0  0  0  0
  9 31  1  0  0  0  0
  9 32  1  0  0  0  0
 10 12  1  0  0  0  0
 10 33  1  0  0  0  0
 10 34  1  0  0  0  0
 11 13  1  0  0  0  0
 11 35  1  0  0  0  0
 11 36  1  0  0  0  0
 12 15  1  0  0  0  0
 12 37  1  0  0  0  0
 12 38  1  0  0  0  0
 13 16  1  0  0  0  0
 13 39  1  0  0  0  0
 13 40  1  0  0  0  0
 14 19  1  0  0  0  0
 14 41  1  0  0  0  0
 14 42  1  0  0  0  0
 15 17  1  0  0  0  0
 15 43  1  0  0  0  0
 16 18  1  0  0  0  0
 16 44  1  0  0  0  0
 16 45  1  0  0  0  0
 17 20  1  0  0  0  0
 17 21  2  0  0  0  0
 18 22  1  0  0  0  0
 18 46  1  0  0  0  0
 18 47  1  0  0  0  0
 19 48  1  0  0  0  0
 19 49  1  0  0  0  0
 19 50  1  0  0  0  0
 20 23  2  0  0  0  0
 20 51  1  0  0  0  0
 21 24  1  0  0  0  0
 21 52  1  0  0  0  0
 22 53  1  0  0  0  0
 22 54  1  0  0  0  0
 22 55  1  0  0  0  0
 23 25  1  0  0  0  0
 23 57  1  0  0  0  0
 24 25  2  0  0  0  0
 24 58  1  0  0  0  0
 26 60  1  0  0  0  0
 26 61  1  0  0  0  0
 26 62  1  0  0  0  0
M  END
$$$$
Loratadine
  MOE2024           3D

 50 53  0  0  0  0  0  0  0  0999 V2000
    2.1190   -6.1260    1.4310 Cl  0  0  0  0  0  0  0  0  0  0  0  0
   11.5760   -0.2400   -0.3670 O   0  0  0  0  0  0  0  0  0  0  0  0
   11.3150   -2.2050   -1.3380 O   0  0  0  0  0  0  0  0  0  0  0  0
    9.4860   -1.2320   -0.4140 N   0  0  0  0  0  0  0  0  0  0  0  0
    4.6600    0.9630    1.3600 N   0  0  0  0  0  0  0  0  0  0  0  0
    6.5680   -1.1600    0.2180 C   0  0  0  0  0  0  0  0  0  0  0  0
    7.3950    0.0920   -0.1050 C   0  0  0  0  0  0  0  0  0  0  0  0
    7.4010   -2.4470    0.2230 C   0  0  0  0  0  0  0  0  0  0  0  0
    5.2290   -1.1430    0.4530 C   0  0  0  0  0  0  0  0  0  0  0  0
    8.8700   -0.0610    0.2800 C   0  0  0  0  0  0  0  0  0  0  0  0
    8.5880   -2.3770   -0.7450 C   0  0  0  0  0  0  0  0  0  0  0  0
    4.4830   -2.3530    0.7100 C   0  0  0  0  0  0  0  0  0  0  0  0
    4.3840    0.0380    0.4350 C   0  0  0  0  0  0  0  0  0  0  0  0
    3.6970   -2.8930   -0.3040 C   0  0  0  0  0  0  0  0  0  0  0  0
    3.6610   -2.1750   -1.6440 C   0  0  0  0  0  0  0  0  0  0  0  0
    2.9020   -0.8440   -1.5490 C   0  0  0  0  0  0  0  0  0  0  0  0
    3.3270    0.1800   -0.4830 C   0  0  0  0  0  0  0  0  0  0  0  0
    4.5260   -2.9870    1.9490 C   0  0  0  0  0  0  0  0  0  0  0  0
   10.8150   -1.2720   -0.7370 C   0  0  0  0  0  0  0  0  0  0  0  0
    2.9700   -4.0520   -0.0830 C   0  0  0  0  0  0  0  0  0  0  0  0
    2.5640    1.3310   -0.4460 C   0  0  0  0  0  0  0  0  0  0  0  0
    3.8030   -4.1440    2.1760 C   0  0  0  0  0  0  0  0  0  0  0  0
    3.0320   -4.6660    1.1550 C   0  0  0  0  0  0  0  0  0  0  0  0
    2.8670    2.2810    0.5010 C   0  0  0  0  0  0  0  0  0  0  0  0
    3.9110    2.0460    1.3720 C   0  0  0  0  0  0  0  0  0  0  0  0
   12.9530   -0.2160   -0.6620 C   0  0  0  0  0  0  0  0  0  0  0  0
   13.5330    1.0820   -0.1110 C   0  0  0  0  0  0  0  0  0  0  0  0
    7.3370    0.2900   -1.1600 H   0  0  0  0  0  0  0  0  0  0  0  0
    7.0060    0.9530    0.4030 H   0  0  0  0  0  0  0  0  0  0  0  0
    7.7790   -2.6200    1.2150 H   0  0  0  0  0  0  0  0  0  0  0  0
    6.7950   -3.2940   -0.0430 H   0  0  0  0  0  0  0  0  0  0  0  0
    9.3980    0.8410    0.0200 H   0  0  0  0  0  0  0  0  0  0  0  0
    8.9490   -0.2040    1.3430 H   0  0  0  0  0  0  0  0  0  0  0  0
    9.1430   -3.2990   -0.6980 H   0  0  0  0  0  0  0  0  0  0  0  0
    8.2250   -2.2540   -1.7500 H   0  0  0  0  0  0  0  0  0  0  0  0
    4.6660   -1.9950   -1.9870 H   0  0  0  0  0  0  0  0  0  0  0  0
    3.1840   -2.7990   -2.3790 H   0  0  0  0  0  0  0  0  0  0  0  0
    2.9560   -0.3650   -2.5110 H   0  0  0  0  0  0  0  0  0  0  0  0
    1.8670   -1.0790   -1.3720 H   0  0  0  0  0  0  0  0  0  0  0  0
    5.1290   -2.5580    2.7300 H   0  0  0  0  0  0  0  0  0  0  0  0
    2.3580   -4.4840   -0.8530 H   0  0  0  0  0  0  0  0  0  0  0  0
    1.7490    1.4890   -1.1300 H   0  0  0  0  0  0  0  0  0  0  0  0
    3.8320   -4.6370    3.1310 H   0  0  0  0  0  0  0  0  0  0  0  0
    2.3000    3.1920    0.5680 H   0  0  0  0  0  0  0  0  0  0  0  0
    4.1400    2.7890    2.1170 H   0  0  0  0  0  0  0  0  0  0  0  0
   13.4150   -1.0730   -0.2020 H   0  0  0  0  0  0  0  0  0  0  0  0
   13.0730   -0.2710   -1.7310 H   0  0  0  0  0  0  0  0  0  0  0  0
   14.5860    1.1270   -0.3220 H   0  0  0  0  0  0  0  0  0  0  0  0
   13.3930    1.1260    0.9550 H   0  0  0  0  0  0  0  0  0  0  0  0
   13.0530    1.9270   -0.5720 H   0  0  0  0  0  0  0  0  0  0  0  0
  1 23  1  0  0  0  0
  2 19  1  0  0  0  0
  2 26  1  0  0  0  0
  3 19  2  0  0  0  0
  4 10  1  0  0  0  0
  4 11  1  0  0  0  0
  4 19  1  0  0  0  0
  5 13  2  0  0  0  0
  5 25  1  0  0  0  0
  6  7  1  0  0  0  0
  6  8  1  0  0  0  0
  6  9  2  0  0  0  0
  7 10  1  0  0  0  0
  7 28  1  0  0  0  0
  7 29  1  0  0  0  0
  8 11  1  0  0  0  0
  8 30  1  0  0  0  0
  8 31  1  0  0  0  0
  9 12  1  0  0  0  0
  9 13  1  0  0  0  0
 10 32  1  0  0  0  0
 10 33  1  0  0  0  0
 11 34  1  0  0  0  0
 11 35  1  0  0  0  0
 12 14  2  0  0  0  0
 12 18  1  0  0  0  0
 13 17  1  0  0  0  0
 14 15  1  0  0  0  0
 14 20  1  0  0  0  0
 15 16  1  0  0  0  0
 15 36  1  0  0  0  0
 15 37  1  0  0  0  0
 16 17  1  0  0  0  0
 16 38  1  0  0  0  0
 16 39  1  0  0  0  0
 17 21  2  0  0  0  0
 18 22  2  0  0  0  0
 18 40  1  0  0  0  0
 20 23  2  0  0  0  0
 20 41  1  0  0  0  0
 21 24  1  0  0  0  0
 21 42  1  0  0  0  0
 22 23  1  0  0  0  0
 22 43  1  0  0  0  0
 24 25  2  0  0  0  0
 24 44  1  0  0  0  0
 25 45  1  0  0  0  0
 26 27  1  0  0  0  0
 26 46  1  0  0  0  0
 26 47  1  0  0  0  0
 27 48  1  0  0  0  0
 27 49  1  0  0  0  0
 27 50  1  0  0  0  0
M  END
$$$$
Methadone
  MOE2024           3D

 50 51  0  0  1  0  0  0  0  0999 V2000
    4.0900   -3.4420   -0.0690 O   0  0  0  0  0  0  0  0  0  0  0  0
    5.3640   -0.1770    0.6200 N   0  0  0  0  0  0  0  0  0  0  0  0
    2.5890   -1.5920    0.3190 C   0  0  0  0  0  0  0  0  0  0  0  0
    3.2570   -1.1600    1.6680 C   0  0  0  0  0  0  0  0  0  0  0  0
    4.7530   -0.7770    1.8320 C   0  0  1  0  0  0  0  0  0  0  0  0
    2.0390   -0.3910   -0.5140 C   0  0  0  0  0  0  0  0  0  0  0  0
    1.3220   -2.3940    0.7500 C   0  0  0  0  0  0  0  0  0  0  0  0
    3.5610   -2.4640   -0.5240 C   0  0  0  0  0  0  0  0  0  0  0  0
    5.5850   -1.9070    2.4600 C   0  0  0  0  0  0  0  0  0  0  0  0
    3.8360   -2.0780   -1.9840 C   0  0  0  0  0  0  0  0  0  0  0  0
    2.4830    0.9180   -0.3580 C   0  0  0  0  0  0  0  0  0  0  0  0
    1.1310   -3.7500    0.4880 C   0  0  0  0  0  0  0  0  0  0  0  0
    1.0410   -0.6130   -1.4640 C   0  0  0  0  0  0  0  0  0  0  0  0
    0.3070   -1.7250    1.4340 C   0  0  0  0  0  0  0  0  0  0  0  0
    6.4240   -0.9560   -0.0490 C   0  0  0  0  0  0  0  0  0  0  0  0
    5.8890    1.1710    0.8910 C   0  0  0  0  0  0  0  0  0  0  0  0
    4.8280   -2.9970   -2.7210 C   0  0  0  0  0  0  0  0  0  0  0  0
    1.9710    1.9540   -1.1190 C   0  0  0  0  0  0  0  0  0  0  0  0
   -0.0180   -4.4050    0.8970 C   0  0  0  0  0  0  0  0  0  0  0  0
    0.5220    0.4170   -2.2270 C   0  0  0  0  0  0  0  0  0  0  0  0
   -0.8420   -2.3760    1.8440 C   0  0  0  0  0  0  0  0  0  0  0  0
    0.9890    1.7060   -2.0580 C   0  0  0  0  0  0  0  0  0  0  0  0
   -1.0070   -3.7210    1.5760 C   0  0  0  0  0  0  0  0  0  0  0  0
    3.0850   -1.9630    2.3630 H   0  0  0  0  0  0  0  0  0  0  0  0
    2.6860   -0.3420    2.0640 H   0  0  0  0  0  0  0  0  0  0  0  0
    4.7460   -0.0140    2.5940 H   0  0  0  0  0  0  0  0  0  0  0  0
    5.1560   -2.1900    3.4040 H   0  0  0  0  0  0  0  0  0  0  0  0
    5.6030   -2.7820    1.8380 H   0  0  0  0  0  0  0  0  0  0  0  0
    6.5890   -1.5750    2.6480 H   0  0  0  0  0  0  0  0  0  0  0  0
    4.2120   -1.0710   -2.0080 H   0  0  0  0  0  0  0  0  0  0  0  0
    2.9120   -2.1030   -2.5290 H   0  0  0  0  0  0  0  0  0  0  0  0
    3.2370    1.1580    0.3610 H   0  0  0  0  0  0  0  0  0  0  0  0
    1.8640   -4.3360   -0.0350 H   0  0  0  0  0  0  0  0  0  0  0  0
    0.6490   -1.6040   -1.6200 H   0  0  0  0  0  0  0  0  0  0  0  0
    0.4010   -0.6750    1.6480 H   0  0  0  0  0  0  0  0  0  0  0  0
    6.1220   -1.9750   -0.1970 H   0  0  0  0  0  0  0  0  0  0  0  0
    7.3280   -0.9510    0.5360 H   0  0  0  0  0  0  0  0  0  0  0  0
    6.6360   -0.5260   -1.0120 H   0  0  0  0  0  0  0  0  0  0  0  0
    6.7220    1.1170    1.5710 H   0  0  0  0  0  0  0  0  0  0  0  0
    6.2130    1.6290   -0.0280 H   0  0  0  0  0  0  0  0  0  0  0  0
    5.1270    1.7930    1.3270 H   0  0  0  0  0  0  0  0  0  0  0  0
    5.7840   -2.9950   -2.2290 H   0  0  0  0  0  0  0  0  0  0  0  0
    4.4560   -4.0060   -2.7370 H   0  0  0  0  0  0  0  0  0  0  0  0
    4.9610   -2.6620   -3.7340 H   0  0  0  0  0  0  0  0  0  0  0  0
    2.3390    2.9550   -0.9790 H   0  0  0  0  0  0  0  0  0  0  0  0
   -0.1390   -5.4530    0.6850 H   0  0  0  0  0  0  0  0  0  0  0  0
   -0.2470    0.2140   -2.9520 H   0  0  0  0  0  0  0  0  0  0  0  0
   -1.6090   -1.8340    2.3690 H   0  0  0  0  0  0  0  0  0  0  0  0
    0.5890    2.5100   -2.6510 H   0  0  0  0  0  0  0  0  0  0  0  0
   -1.8990   -4.2320    1.8940 H   0  0  0  0  0  0  0  0  0  0  0  0
  1  8  2  0  0  0  0
  2  5  1  0  0  0  0
  2 15  1  0  0  0  0
  2 16  1  0  0  0  0
  3  4  1  0  0  0  0
  3  6  1  0  0  0  0
  3  7  1  0  0  0  0
  3  8  1  0  0  0  0
  4  5  1  0  0  0  0
  4 24  1  0  0  0  0
  4 25  1  0  0  0  0
  5  9  1  0  0  0  0
  5 26  1  0  0  0  0
  6 11  2  0  0  0  0
  6 13  1  0  0  0  0
  7 12  2  0  0  0  0
  7 14  1  0  0  0  0
  8 10  1  0  0  0  0
  9 27  1  0  0  0  0
  9 28  1  0  0  0  0
  9 29  1  0  0  0  0
 10 17  1  0  0  0  0
 10 30  1  0  0  0  0
 10 31  1  0  0  0  0
 11 18  1  0  0  0  0
 11 32  1  0  0  0  0
 12 19  1  0  0  0  0
 12 33  1  0  0  0  0
 13 20  2  0  0  0  0
 13 34  1  0  0  0  0
 14 21  2  0  0  0  0
 14 35  1  0  0  0  0
 15 36  1  0  0  0  0
 15 37  1  0  0  0  0
 15 38  1  0  0  0  0
 16 39  1  0  0  0  0
 16 40  1  0  0  0  0
 16 41  1  0  0  0  0
 17 42  1  0  0  0  0
 17 43  1  0  0  0  0
 17 44  1  0  0  0  0
 18 22  2  0  0  0  0
 18 45  1  0  0  0  0
 19 23  2  0  0  0  0
 19 46  1  0  0  0  0
 20 22  1  0  0  0  0
 20 47  1  0  0  0  0
 21 23  1  0  0  0  0
 21 48  1  0  0  0  0
 22 49  1  0  0  0  0
 23 50  1  0  0  0  0
M  END
$$$$
Mibefradil
  MOE2024           3D

 74 77  0  0  1  0  0  0  0  0999 V2000
    1.9310    3.5870    0.2040 F   0  0  0  0  0  0  0  0  0  0  0  0
    7.2840    1.6680    0.3540 O   0  0  0  0  0  0  0  0  0  0  0  0
    8.8650    3.1290   -0.2210 O   0  0  0  0  0  0  0  0  0  0  0  0
    6.3420    3.8240    2.0450 O   0  0  0  0  0  0  0  0  0  0  0  0
   10.7780   -0.6940    0.3770 N   0  0  2  0  0  0  0  0  0  0  0  0
   16.0230    0.5970    1.0120 N   0  0  0  0  0  0  0  0  0  0  0  0
   16.4160    0.3920   -1.1590 N   0  0  0  0  0  0  0  0  0  0  0  0
    7.2830    0.7450   -0.7360 C   0  0  1  0  0  0  0  0  0  0  0  0
    6.0250   -0.1830   -0.5220 C   0  0  1  0  0  0  0  0  0  0  0  0
    7.0200    1.5040   -2.0840 C   0  0  0  0  0  0  0  0  0  0  0  0
    6.0160   -1.4570    0.3930 C   0  0  0  0  0  0  0  0  0  0  0  0
    8.6930    0.0960   -0.8150 C   0  0  0  0  0  0  0  0  0  0  0  0
    4.8750    0.8200   -0.2480 C   0  0  0  0  0  0  0  0  0  0  0  0
    5.5460    1.8000   -2.4550 C   0  0  0  0  0  0  0  0  0  0  0  0
    4.6340    1.7650   -1.2420 C   0  0  0  0  0  0  0  0  0  0  0  0
    9.4250   -0.1260    0.5320 C   0  0  0  0  0  0  0  0  0  0  0  0
    4.6410   -2.1720    0.3630 C   0  0  0  0  0  0  0  0  0  0  0  0
    6.9940   -2.5650   -0.0520 C   0  0  0  0  0  0  0  0  0  0  0  0
    4.1530    0.8990    0.9420 C   0  0  0  0  0  0  0  0  0  0  0  0
    3.6190    2.6970   -1.1030 C   0  0  0  0  0  0  0  0  0  0  0  0
    3.1440    1.8320    1.1010 C   0  0  0  0  0  0  0  0  0  0  0  0
    8.0010    2.7720    0.5410 C   0  0  0  0  0  0  0  0  0  0  0  0
    2.8850    2.7060    0.0660 C   0  0  0  0  0  0  0  0  0  0  0  0
   11.6890    0.1880   -0.3660 C   0  0  0  0  0  0  0  0  0  0  0  0
   10.7910   -2.0850   -0.0980 C   0  0  0  0  0  0  0  0  0  0  0  0
   13.1420   -0.0900    0.0270 C   0  0  0  0  0  0  0  0  0  0  0  0
    7.7060    3.5690    1.8140 C   0  0  0  0  0  0  0  0  0  0  0  0
   14.0840    0.9690   -0.5560 C   0  0  0  0  0  0  0  0  0  0  0  0
   15.5360    0.6450   -0.2540 C   0  0  0  0  0  0  0  0  0  0  0  0
    5.7180    4.6100    1.0790 C   0  0  0  0  0  0  0  0  0  0  0  0
   17.3370    0.2830    0.8970 C   0  0  0  0  0  0  0  0  0  0  0  0
   17.5630    0.1600   -0.4610 C   0  0  0  0  0  0  0  0  0  0  0  0
   18.3630    0.0900    1.8250 C   0  0  0  0  0  0  0  0  0  0  0  0
   18.8360   -0.1630   -0.9260 C   0  0  0  0  0  0  0  0  0  0  0  0
   19.6180   -0.2290    1.3560 C   0  0  0  0  0  0  0  0  0  0  0  0
   19.8560   -0.3560   -0.0190 C   0  0  0  0  0  0  0  0  0  0  0  0
    5.8220   -0.6100   -1.4880 H   0  0  0  0  0  0  0  0  0  0  0  0
    7.4100    0.9020   -2.8850 H   0  0  0  0  0  0  0  0  0  0  0  0
    7.5730    2.4220   -2.1210 H   0  0  0  0  0  0  0  0  0  0  0  0
    6.2460   -1.1660    1.4040 H   0  0  0  0  0  0  0  0  0  0  0  0
    8.6240   -0.8140   -1.3760 H   0  0  0  0  0  0  0  0  0  0  0  0
    9.3080    0.7570   -1.3980 H   0  0  0  0  0  0  0  0  0  0  0  0
    5.1950    1.0610   -3.1560 H   0  0  0  0  0  0  0  0  0  0  0  0
    5.4870    2.7580   -2.9410 H   0  0  0  0  0  0  0  0  0  0  0  0
    9.5400    0.8120    1.0410 H   0  0  0  0  0  0  0  0  0  0  0  0
    8.8480   -0.7490    1.1900 H   0  0  0  0  0  0  0  0  0  0  0  0
    3.8200   -1.5550    0.6630 H   0  0  0  0  0  0  0  0  0  0  0  0
    4.4260   -2.5260   -0.6300 H   0  0  0  0  0  0  0  0  0  0  0  0
    4.6450   -3.0190    1.0270 H   0  0  0  0  0  0  0  0  0  0  0  0
    6.8120   -3.4720    0.4970 H   0  0  0  0  0  0  0  0  0  0  0  0
    6.8770   -2.7800   -1.0990 H   0  0  0  0  0  0  0  0  0  0  0  0
    8.0100   -2.3160    0.1330 H   0  0  0  0  0  0  0  0  0  0  0  0
    4.3760    0.2460    1.7650 H   0  0  0  0  0  0  0  0  0  0  0  0
    3.4040    3.4160   -1.8710 H   0  0  0  0  0  0  0  0  0  0  0  0
    2.5760    1.8880    2.0110 H   0  0  0  0  0  0  0  0  0  0  0  0
   11.5560    0.0550   -1.4260 H   0  0  0  0  0  0  0  0  0  0  0  0
   11.4600    1.2130   -0.1230 H   0  0  0  0  0  0  0  0  0  0  0  0
   10.1630   -2.6910    0.5300 H   0  0  0  0  0  0  0  0  0  0  0  0
   11.7860   -2.4880   -0.0460 H   0  0  0  0  0  0  0  0  0  0  0  0
   10.4460   -2.1440   -1.1160 H   0  0  0  0  0  0  0  0  0  0  0  0
   13.2190   -0.0920    1.0990 H   0  0  0  0  0  0  0  0  0  0  0  0
   13.4420   -1.0530   -0.3440 H   0  0  0  0  0  0  0  0  0  0  0  0
    8.2250    4.5090    1.7800 H   0  0  0  0  0  0  0  0  0  0  0  0
    8.0680    3.0090    2.6560 H   0  0  0  0  0  0  0  0  0  0  0  0
   13.9590    1.0110   -1.6250 H   0  0  0  0  0  0  0  0  0  0  0  0
   13.8470    1.9400   -0.1580 H   0  0  0  0  0  0  0  0  0  0  0  0
   15.5050    0.7510    1.8800 H   0  0  0  0  0  0  0  0  0  0  0  0
    4.6980    4.7660    1.3840 H   0  0  0  0  0  0  0  0  0  0  0  0
    6.2250    5.5570    1.0050 H   0  0  0  0  0  0  0  0  0  0  0  0
    5.7310    4.0960    0.1340 H   0  0  0  0  0  0  0  0  0  0  0  0
   18.1690    0.1890    2.8780 H   0  0  0  0  0  0  0  0  0  0  0  0
   18.9870   -0.2540   -1.9850 H   0  0  0  0  0  0  0  0  0  0  0  0
   20.4310   -0.3840    2.0430 H   0  0  0  0  0  0  0  0  0  0  0  0
   20.8450   -0.6050   -0.3620 H   0  0  0  0  0  0  0  0  0  0  0  0
  1 23  1  0  0  0  0
  2  8  1  0  0  0  0
  2 22  1  0  0  0  0
  3 22  2  0  0  0  0
  4 27  1  0  0  0  0
  4 30  1  0  0  0  0
  5 16  1  0  0  0  0
  5 24  1  0  0  0  0
  5 25  1  0  0  0  0
  6 29  1  0  0  0  0
  6 31  1  0  0  0  0
  6 67  1  0  0  0  0
  7 29  2  0  0  0  0
  7 32  1  0  0  0  0
  8  9  1  0  0  0  0
  8 10  1  0  0  0  0
  8 12  1  0  0  0  0
  9 11  1  0  0  0  0
  9 13  1  0  0  0  0
  9 37  1  0  0  0  0
 10 14  1  0  0  0  0
 10 38  1  0  0  0  0
 10 39  1  0  0  0  0
 11 17  1  0  0  0  0
 11 18  1  0  0  0  0
 11 40  1  0  0  0  0
 12 16  1  0  0  0  0
 12 41  1  0  0  0  0
 12 42  1  0  0  0  0
 13 15  2  0  0  0  0
 13 19  1  0  0  0  0
 14 15  1  0  0  0  0
 14 43  1  0  0  0  0
 14 44  1  0  0  0  0
 15 20  1  0  0  0  0
 16 45  1  0  0  0  0
 16 46  1  0  0  0  0
 17 47  1  0  0  0  0
 17 48  1  0  0  0  0
 17 49  1  0  0  0  0
 18 50  1  0  0  0  0
 18 51  1  0  0  0  0
 18 52  1  0  0  0  0
 19 21  2  0  0  0  0
 19 53  1  0  0  0  0
 20 23  2  0  0  0  0
 20 54  1  0  0  0  0
 21 23  1  0  0  0  0
 21 55  1  0  0  0  0
 22 27  1  0  0  0  0
 24 26  1  0  0  0  0
 24 56  1  0  0  0  0
 24 57  1  0  0  0  0
 25 58  1  0  0  0  0
 25 59  1  0  0  0  0
 25 60  1  0  0  0  0
 26 28  1  0  0  0  0
 26 61  1  0  0  0  0
 26 62  1  0  0  0  0
 27 63  1  0  0  0  0
 27 64  1  0  0  0  0
 28 29  1  0  0  0  0
 28 65  1  0  0  0  0
 28 66  1  0  0  0  0
 30 68  1  0  0  0  0
 30 69  1  0  0  0  0
 30 70  1  0  0  0  0
 31 32  1  0  0  0  0
 31 33  2  0  0  0  0
 32 34  2  0  0  0  0
 33 35  1  0  0  0  0
 33 71  1  0  0  0  0
 34 36  1  0  0  0  0
 34 72  1  0  0  0  0
 35 36  2  0  0  0  0
 35 73  1  0  0  0  0
 36 74  1  0  0  0  0
M  END
$$$$
Metronidazole
  MOE2024           3D

 21 21  0  0  0  0  0  0  0  0999 V2000
    6.9900   -3.4750   -0.4720 O   0  0  0  0  0  0  0  0  0  0  0  0
    0.9040   -2.8820   -0.3090 O   0  5  0  0  0  0  0  0  0  0  0  0
    2.8130   -3.8630   -0.3530 O   0  0  0  0  0  0  0  0  0  0  0  0
    4.0820   -1.2960   -0.0220 N   0  0  0  0  0  0  0  0  0  0  0  0
    3.1020    0.6420   -0.4970 N   0  0  0  0  0  0  0  0  0  0  0  0
    2.1440   -2.8160   -0.3120 N   0  3  0  0  0  0  0  0  0  0  0  0
    5.1680   -2.2330    0.3680 C   0  0  0  0  0  0  0  0  0  0  0  0
    4.2020    0.0480   -0.1610 C   0  0  0  0  0  0  0  0  0  0  0  0
    2.7780   -1.5530   -0.3060 C   0  0  0  0  0  0  0  0  0  0  0  0
    5.8420   -2.8140   -0.8750 C   0  0  0  0  0  0  0  0  0  0  0  0
    2.2110   -0.3540   -0.5840 C   0  0  0  0  0  0  0  0  0  0  0  0
    5.4940    0.8150    0.0530 C   0  0  0  0  0  0  0  0  0  0  0  0
    5.8950   -1.7000    0.9520 H   0  0  0  0  0  0  0  0  0  0  0  0
    4.7640   -3.0240    0.9720 H   0  0  0  0  0  0  0  0  0  0  0  0
    5.1980   -3.5230   -1.3680 H   0  0  0  0  0  0  0  0  0  0  0  0
    6.1310   -2.0340   -1.5600 H   0  0  0  0  0  0  0  0  0  0  0  0
    1.1830   -0.1650   -0.8490 H   0  0  0  0  0  0  0  0  0  0  0  0
    6.2690    0.4300   -0.5840 H   0  0  0  0  0  0  0  0  0  0  0  0
    5.8030    0.7410    1.0790 H   0  0  0  0  0  0  0  0  0  0  0  0
    5.3430    1.8540   -0.1830 H   0  0  0  0  0  0  0  0  0  0  0  0
    7.4090   -3.9410   -1.2230 H   0  0  0  0  0  0  0  0  0  0  0  0
  1 10  1  0  0  0  0
  1 21  1  0  0  0  0
  2  6  1  0  0  0  0
  3  6  2  0  0  0  0
  4  7  1  0  0  0  0
  4  8  1  0  0  0  0
  4  9  1  0  0  0  0
  5  8  2  0  0  0  0
  5 11  1  0  0  0  0
  6  9  1  0  0  0  0
  7 10  1  0  0  0  0
  7 13  1  0  0  0  0
  7 14  1  0  0  0  0
  8 12  1  0  0  0  0
  9 11  2  0  0  0  0
 10 15  1  0  0  0  0
 10 16  1  0  0  0  0
 11 17  1  0  0  0  0
 12 18  1  0  0  0  0
 12 19  1  0  0  0  0
 12 20  1  0  0  0  0
M  CHG  1   2  -1
M  CHG  1   6   1
M  END
$$$$
Moxifloxacin
  MOE2024           3D

 53 57  0  0  1  0  0  0  0  0999 V2000
    4.6840   -1.2520    0.7160 F   0  0  0  0  0  0  0  0  0  0  0  0
    3.9420    3.3750    0.2150 O   0  0  0  0  0  0  0  0  0  0  0  0
   -0.1140   -0.7680    1.4940 O   0  0  0  0  0  0  0  0  0  0  0  0
   -2.8350    2.1680    1.6720 O   0  0  0  0  0  0  0  0  0  0  0  0
   -2.7510    0.1810    1.0050 O   0  0  0  0  0  0  0  0  0  0  0  0
    5.7840    1.3140    0.3120 N   0  0  0  0  0  0  0  0  0  0  0  0
    8.3900    0.0600   -1.9550 N   0  0  0  0  0  0  0  0  0  0  0  0
    1.0680    2.8750    0.2820 N   0  0  0  0  0  0  0  0  0  0  0  0
    7.8080   -0.0270    0.4970 C   0  0  2  0  0  0  0  0  0  0  0  0
    7.3060   -0.0500   -0.9570 C   0  0  1  0  0  0  0  0  0  0  0  0
    6.7640    0.7700    1.2900 C   0  0  0  0  0  0  0  0  0  0  0  0
    6.3340    1.1250   -1.0540 C   0  0  0  0  0  0  0  0  0  0  0  0
    9.2150    0.5860    0.6070 C   0  0  0  0  0  0  0  0  0  0  0  0
    1.3660    4.1920   -0.3440 C   0  0  0  0  0  0  0  0  0  0  0  0
   10.2060   -0.1530   -0.3120 C   0  0  0  0  0  0  0  0  0  0  0  0
    0.4700    4.7530   -1.4110 C   0  0  0  0  0  0  0  0  0  0  0  0
    1.8130    4.2090   -1.7740 C   0  0  0  0  0  0  0  0  0  0  0  0
    9.5590   -0.7320   -1.5810 C   0  0  0  0  0  0  0  0  0  0  0  0
    4.4020    1.0690    0.4680 C   0  0  0  0  0  0  0  0  0  0  0  0
    2.0690    1.8850    0.4820 C   0  0  0  0  0  0  0  0  0  0  0  0
    3.4640    2.1080    0.3880 C   0  0  0  0  0  0  0  0  0  0  0  0
    1.6170    0.5870    0.8080 C   0  0  0  0  0  0  0  0  0  0  0  0
    3.8810   -0.2120    0.6860 C   0  0  0  0  0  0  0  0  0  0  0  0
   -0.2410    2.6220    0.5660 C   0  0  0  0  0  0  0  0  0  0  0  0
    2.5470   -0.4560    0.8700 C   0  0  0  0  0  0  0  0  0  0  0  0
   -0.7120    1.3990    0.9570 C   0  0  0  0  0  0  0  0  0  0  0  0
    0.2280    0.3380    1.0940 C   0  0  0  0  0  0  0  0  0  0  0  0
   -2.1070    1.1810    1.2100 C   0  0  0  0  0  0  0  0  0  0  0  0
    4.4640    3.9940    1.3700 C   0  0  0  0  0  0  0  0  0  0  0  0
    7.8350   -1.0330    0.8760 H   0  0  0  0  0  0  0  0  0  0  0  0
    6.7560   -0.9620   -1.1200 H   0  0  0  0  0  0  0  0  0  0  0  0
    7.2260    1.5890    1.8130 H   0  0  0  0  0  0  0  0  0  0  0  0
    6.2730    0.1430    2.0140 H   0  0  0  0  0  0  0  0  0  0  0  0
    6.8640    2.0180   -1.3370 H   0  0  0  0  0  0  0  0  0  0  0  0
    5.5520    0.9260   -1.7650 H   0  0  0  0  0  0  0  0  0  0  0  0
    9.1630    1.6150    0.2900 H   0  0  0  0  0  0  0  0  0  0  0  0
    9.5650    0.5670    1.6240 H   0  0  0  0  0  0  0  0  0  0  0  0
    1.8280    4.8780    0.3450 H   0  0  0  0  0  0  0  0  0  0  0  0
   10.9880    0.5270   -0.5970 H   0  0  0  0  0  0  0  0  0  0  0  0
   10.6680   -0.9610    0.2280 H   0  0  0  0  0  0  0  0  0  0  0  0
    8.0360   -0.2640   -2.8630 H   0  0  0  0  0  0  0  0  0  0  0  0
    0.3290    5.8180   -1.4620 H   0  0  0  0  0  0  0  0  0  0  0  0
   -0.3920    4.2050   -1.7460 H   0  0  0  0  0  0  0  0  0  0  0  0
    2.5970    4.8920   -2.0490 H   0  0  0  0  0  0  0  0  0  0  0  0
    1.8820    3.2690   -2.2920 H   0  0  0  0  0  0  0  0  0  0  0  0
   10.2740   -0.7270   -2.3860 H   0  0  0  0  0  0  0  0  0  0  0  0
    9.2550   -1.7510   -1.4050 H   0  0  0  0  0  0  0  0  0  0  0  0
   -0.9330    3.4400    0.4510 H   0  0  0  0  0  0  0  0  0  0  0  0
    2.2170   -1.4610    1.0660 H   0  0  0  0  0  0  0  0  0  0  0  0
    3.7050    4.0070    2.1310 H   0  0  0  0  0  0  0  0  0  0  0  0
    5.3250    3.4460    1.7060 H   0  0  0  0  0  0  0  0  0  0  0  0
    4.7480    4.9980    1.1110 H   0  0  0  0  0  0  0  0  0  0  0  0
   -3.7430    1.8350    1.7770 H   0  0  0  0  0  0  0  0  0  0  0  0
  1 23  1  0  0  0  0
  2 21  1  0  0  0  0
  2 29  1  0  0  0  0
  3 27  2  0  0  0  0
  4 28  1  0  0  0  0
  4 53  1  0  0  0  0
  5 28  2  0  0  0  0
  6 11  1  0  0  0  0
  6 12  1  0  0  0  0
  6 19  1  0  0  0  0
  7 10  1  0  0  0  0
  7 18  1  0  0  0  0
  7 41  1  0  0  0  0
  8 14  1  0  0  0  0
  8 20  1  0  0  0  0
  8 24  1  0  0  0  0
  9 10  1  0  0  0  0
  9 11  1  0  0  0  0
  9 13  1  0  0  0  0
  9 30  1  0  0  0  0
 10 12  1  0  0  0  0
 10 31  1  0  0  0  0
 11 32  1  0  0  0  0
 11 33  1  0  0  0  0
 12 34  1  0  0  0  0
 12 35  1  0  0  0  0
 13 15  1  0  0  0  0
 13 36  1  0  0  0  0
 13 37  1  0  0  0  0
 14 16  1  0  0  0  0
 14 17  1  0  0  0  0
 14 38  1  0  0  0  0
 15 18  1  0  0  0  0
 15 39  1  0  0  0  0
 15 40  1  0  0  0  0
 16 17  1  0  0  0  0
 16 42  1  0  0  0  0
 16 43  1  0  0  0  0
 17 44  1  0  0  0  0
 17 45  1  0  0  0  0
 18 46  1  0  0  0  0
 18 47  1  0  0  0  0
 19 21  1  0  0  0  0
 19 23  2  0  0  0  0
 20 21  2  0  0  0  0
 20 22  1  0  0  0  0
 22 25  2  0  0  0  0
 22 27  1  0  0  0  0
 23 25  1  0  0  0  0
 24 26  2  0  0  0  0
 24 48  1  0  0  0  0
 25 49  1  0  0  0  0
 26 27  1  0  0  0  0
 26 28  1  0  0  0  0
 29 50  1  0  0  0  0
 29 51  1  0  0  0  0
 29 52  1  0  0  0  0
M  END
$$$$
Paroxetine
  MOE2024           3D

 44 47  0  0  1  0  0  0  0  0999 V2000
    1.3800    7.5370    1.2740 F   0  0  0  0  0  0  0  0  0  0  0  0
    5.8910    1.8790    0.2520 O   0  0  0  0  0  0  0  0  0  0  0  0
   10.6670    1.7460    0.2880 O   0  0  0  0  0  0  0  0  0  0  0  0
   10.8770    3.7060   -0.8700 O   0  0  0  0  0  0  0  0  0  0  0  0
    2.4660   -0.6050    0.3890 N   0  0  0  0  0  0  0  0  0  0  0  0
    2.1660    2.2070   -0.2090 C   0  0  1  0  0  0  0  0  0  0  0  0
    3.4920    1.6350    0.3350 C   0  0  1  0  0  0  0  0  0  0  0  0
    0.9840    1.3250    0.2190 C   0  0  0  0  0  0  0  0  0  0  0  0
    3.6340    0.1580   -0.0650 C   0  0  0  0  0  0  0  0  0  0  0  0
    1.2130   -0.1300   -0.1900 C   0  0  0  0  0  0  0  0  0  0  0  0
    4.6800    2.4740   -0.1620 C   0  0  0  0  0  0  0  0  0  0  0  0
    1.9450    3.6620    0.2070 C   0  0  0  0  0  0  0  0  0  0  0  0
    1.8100    4.6450   -0.7690 C   0  0  0  0  0  0  0  0  0  0  0  0
    1.8800    4.0160    1.5510 C   0  0  0  0  0  0  0  0  0  0  0  0
    1.6170    5.9690   -0.4110 C   0  0  0  0  0  0  0  0  0  0  0  0
    1.6870    5.3370    1.9220 C   0  0  0  0  0  0  0  0  0  0  0  0
    7.0890    2.4270   -0.0790 C   0  0  0  0  0  0  0  0  0  0  0  0
    1.5600    6.2890    0.9310 C   0  0  0  0  0  0  0  0  0  0  0  0
    8.2200    1.7260    0.3240 C   0  0  0  0  0  0  0  0  0  0  0  0
    7.2210    3.6290   -0.7870 C   0  0  0  0  0  0  0  0  0  0  0  0
    9.4580    2.2450    0.0060 C   0  0  0  0  0  0  0  0  0  0  0  0
    9.5830    3.4150   -0.6850 C   0  0  0  0  0  0  0  0  0  0  0  0
    8.4780    4.1330   -1.0960 C   0  0  0  0  0  0  0  0  0  0  0  0
   11.6220    2.6560   -0.2550 C   0  0  0  0  0  0  0  0  0  0  0  0
    2.2150    2.1650   -1.2840 H   0  0  0  0  0  0  0  0  0  0  0  0
    3.4830    1.6820    1.4090 H   0  0  0  0  0  0  0  0  0  0  0  0
    0.0800    1.6880   -0.2360 H   0  0  0  0  0  0  0  0  0  0  0  0
    0.8550    1.3650    1.2860 H   0  0  0  0  0  0  0  0  0  0  0  0
    4.5170   -0.2560    0.3920 H   0  0  0  0  0  0  0  0  0  0  0  0
    3.7340    0.0690   -1.1340 H   0  0  0  0  0  0  0  0  0  0  0  0
    1.2490   -0.2160   -1.2640 H   0  0  0  0  0  0  0  0  0  0  0  0
    0.4010   -0.7390    0.1730 H   0  0  0  0  0  0  0  0  0  0  0  0
    4.6830    2.5240   -1.2370 H   0  0  0  0  0  0  0  0  0  0  0  0
    4.6350    3.4660    0.2520 H   0  0  0  0  0  0  0  0  0  0  0  0
    2.6000   -1.5930    0.1390 H   0  0  0  0  0  0  0  0  0  0  0  0
    1.8530    4.3870   -1.8120 H   0  0  0  0  0  0  0  0  0  0  0  0
    1.9790    3.2660    2.3160 H   0  0  0  0  0  0  0  0  0  0  0  0
    1.5110    6.7390   -1.1530 H   0  0  0  0  0  0  0  0  0  0  0  0
    1.6360    5.6230    2.9570 H   0  0  0  0  0  0  0  0  0  0  0  0
    8.1330    0.8050    0.8690 H   0  0  0  0  0  0  0  0  0  0  0  0
    6.3610    4.1870   -1.1020 H   0  0  0  0  0  0  0  0  0  0  0  0
    8.6020    5.0530   -1.6380 H   0  0  0  0  0  0  0  0  0  0  0  0
   12.2270    3.0590    0.5370 H   0  0  0  0  0  0  0  0  0  0  0  0
   12.2170    2.1540   -0.9960 H   0  0  0  0  0  0  0  0  0  0  0  0
  1 18  1  0  0  0  0
  2 11  1  0  0  0  0
  2 17  1  0  0  0  0
  3 21  1  0  0  0  0
  3 24  1  0  0  0  0
  4 22  1  0  0  0  0
  4 24  1  0  0  0  0
  5  9  1  0  0  0  0
  5 10  1  0  0  0  0
  5 35  1  0  0  0  0
  6  7  1  0  0  0  0
  6  8  1  0  0  0  0
  6 12  1  0  0  0  0
  6 25  1  0  0  0  0
  7  9  1  0  0  0  0
  7 11  1  0  0  0  0
  7 26  1  0  0  0  0
  8 10  1  0  0  0  0
  8 27  1  0  0  0  0
  8 28  1  0  0  0  0
  9 29  1  0  0  0  0
  9 30  1  0  0  0  0
 10 31  1  0  0  0  0
 10 32  1  0  0  0  0
 11 33  1  0  0  0  0
 11 34  1  0  0  0  0
 12 13  1  0  0  0  0
 12 14  2  0  0  0  0
 13 15  2  0  0  0  0
 13 36  1  0  0  0  0
 14 16  1  0  0  0  0
 14 37  1  0  0  0  0
 15 18  1  0  0  0  0
 15 38  1  0  0  0  0
 16 18  2  0  0  0  0
 16 39  1  0  0  0  0
 17 19  1  0  0  0  0
 17 20  2  0  0  0  0
 19 21  2  0  0  0  0
 19 40  1  0  0  0  0
 20 23  1  0  0  0  0
 20 41  1  0  0  0  0
 21 22  1  0  0  0  0
 22 23  2  0  0  0  0
 23 42  1  0  0  0  0
 24 43  1  0  0  0  0
 24 44  1  0  0  0  0
M  END
$$$$
Nifedipine
  MOE2024           3D

 43 44  0  0  0  0  0  0  0  0999 V2000
    1.3630    0.5200   -1.3370 O   0  0  0  0  0  0  0  0  0  0  0  0
    7.6210    0.3440    0.0190 O   0  0  0  0  0  0  0  0  0  0  0  0
    0.5210   -0.5890    0.3510 O   0  0  0  0  0  0  0  0  0  0  0  0
    6.2850    1.3230   -1.4070 O   0  0  0  0  0  0  0  0  0  0  0  0
    3.7730    2.4580   -2.4860 O   0  5  0  0  0  0  0  0  0  0  0  0
    2.1050    3.6070   -1.7990 O   0  0  0  0  0  0  0  0  0  0  0  0
    4.4150   -2.4270    0.7360 N   0  0  0  0  0  0  0  0  0  0  0  0
    3.1020    2.9030   -1.5420 N   0  3  0  0  0  0  0  0  0  0  0  0
    3.9660    0.1160   -0.4360 C   0  0  0  0  0  0  0  0  0  0  0  0
    2.8200   -0.8340   -0.0410 C   0  0  0  0  0  0  0  0  0  0  0  0
    5.3790   -0.4560   -0.1980 C   0  0  0  0  0  0  0  0  0  0  0  0
    3.8230    1.4220    0.3750 C   0  0  0  0  0  0  0  0  0  0  0  0
    3.1170   -2.0380    0.5200 C   0  0  0  0  0  0  0  0  0  0  0  0
    5.5110   -1.6930    0.3560 C   0  0  0  0  0  0  0  0  0  0  0  0
    3.4590    2.6710   -0.1680 C   0  0  0  0  0  0  0  0  0  0  0  0
    4.0820    1.3250    1.7380 C   0  0  0  0  0  0  0  0  0  0  0  0
    1.5090   -0.3180   -0.3040 C   0  0  0  0  0  0  0  0  0  0  0  0
    6.4290    0.4430   -0.5830 C   0  0  0  0  0  0  0  0  0  0  0  0
    2.1070   -3.0900    0.9540 C   0  0  0  0  0  0  0  0  0  0  0  0
    6.8230   -2.4170    0.6170 C   0  0  0  0  0  0  0  0  0  0  0  0
    3.4070    3.7700    0.6930 C   0  0  0  0  0  0  0  0  0  0  0  0
    4.0150    2.4280    2.5670 C   0  0  0  0  0  0  0  0  0  0  0  0
    3.6810    3.6580    2.0410 C   0  0  0  0  0  0  0  0  0  0  0  0
    0.1100    1.0810   -1.6790 C   0  0  0  0  0  0  0  0  0  0  0  0
    8.6840    1.2280   -0.2820 C   0  0  0  0  0  0  0  0  0  0  0  0
    3.8850    0.2840   -1.4920 H   0  0  0  0  0  0  0  0  0  0  0  0
    4.5750   -3.3420    1.1730 H   0  0  0  0  0  0  0  0  0  0  0  0
    4.3430    0.3730    2.1730 H   0  0  0  0  0  0  0  0  0  0  0  0
    1.1420   -2.9370    0.5100 H   0  0  0  0  0  0  0  0  0  0  0  0
    2.4400   -4.0680    0.6580 H   0  0  0  0  0  0  0  0  0  0  0  0
    1.9980   -3.0690    2.0240 H   0  0  0  0  0  0  0  0  0  0  0  0
    6.7010   -3.4770    0.4820 H   0  0  0  0  0  0  0  0  0  0  0  0
    7.1490   -2.2310    1.6240 H   0  0  0  0  0  0  0  0  0  0  0  0
    7.5910   -2.1020   -0.0640 H   0  0  0  0  0  0  0  0  0  0  0  0
    3.1370    4.7370    0.3000 H   0  0  0  0  0  0  0  0  0  0  0  0
    4.2230    2.3260    3.6190 H   0  0  0  0  0  0  0  0  0  0  0  0
    3.6300    4.5220    2.6810 H   0  0  0  0  0  0  0  0  0  0  0  0
   -0.2440    1.6730   -0.8520 H   0  0  0  0  0  0  0  0  0  0  0  0
    0.2400    1.7020   -2.5470 H   0  0  0  0  0  0  0  0  0  0  0  0
   -0.5830    0.2860   -1.8920 H   0  0  0  0  0  0  0  0  0  0  0  0
    9.5330    0.9570    0.3180 H   0  0  0  0  0  0  0  0  0  0  0  0
    8.3740    2.2340   -0.0540 H   0  0  0  0  0  0  0  0  0  0  0  0
    8.9230    1.1410   -1.3270 H   0  0  0  0  0  0  0  0  0  0  0  0
  1 17  1  0  0  0  0
  1 24  1  0  0  0  0
  2 18  1  0  0  0  0
  2 25  1  0  0  0  0
  3 17  2  0  0  0  0
  4 18  2  0  0  0  0
  5  8  1  0  0  0  0
  6  8  2  0  0  0  0
  7 13  1  0  0  0  0
  7 14  1  0  0  0  0
  7 27  1  0  0  0  0
  8 15  1  0  0  0  0
  9 10  1  0  0  0  0
  9 11  1  0  0  0  0
  9 12  1  0  0  0  0
  9 26  1  0  0  0  0
 10 13  2  0  0  0  0
 10 17  1  0  0  0  0
 11 14  2  0  0  0  0
 11 18  1  0  0  0  0
 12 15  2  0  0  0  0
 12 16  1  0  0  0  0
 13 19  1  0  0  0  0
 14 20  1  0  0  0  0
 15 21  1  0  0  0  0
 16 22  2  0  0  0  0
 16 28  1  0  0  0  0
 19 29  1  0  0  0  0
 19 30  1  0  0  0  0
 19 31  1  0  0  0  0
 20 32  1  0  0  0  0
 20 33  1  0  0  0  0
 20 34  1  0  0  0  0
 21 23  2  0  0  0  0
 21 35  1  0  0  0  0
 22 23  1  0  0  0  0
 22 36  1  0  0  0  0
 23 37  1  0  0  0  0
 24 38  1  0  0  0  0
 24 39  1  0  0  0  0
 24 40  1  0  0  0  0
 25 41  1  0  0  0  0
 25 42  1  0  0  0  0
 25 43  1  0  0  0  0
M  CHG  1   5  -1
M  CHG  1   8   1
M  END
$$$$
Nilotinib
  MOE2024           3D

 61 65  0  0  0  0  0  0  0  0999 V2000
    0.8200   -0.1470   -2.2680 F   0  0  0  0  0  0  0  0  0  0  0  0
    0.0210   -0.4670   -0.3280 F   0  0  0  0  0  0  0  0  0  0  0  0
    2.1050   -0.6800   -0.6600 F   0  0  0  0  0  0  0  0  0  0  0  0
    5.0300    2.9310   -2.0280 O   0  0  0  0  0  0  0  0  0  0  0  0
   -0.8010    4.5270    0.2450 N   0  0  0  0  0  0  0  0  0  0  0  0
    3.9740    4.0590   -0.3970 N   0  0  0  0  0  0  0  0  0  0  0  0
    9.8870    3.5740   -0.2200 N   0  0  0  0  0  0  0  0  0  0  0  0
   -2.2030    6.2660    0.2340 N   0  0  0  0  0  0  0  0  0  0  0  0
   11.3750    1.9520    0.2370 N   0  0  0  0  0  0  0  0  0  0  0  0
    9.1220    1.7120    0.9410 N   0  0  0  0  0  0  0  0  0  0  0  0
   14.8670   -0.9290    1.6970 N   0  0  0  0  0  0  0  0  0  0  0  0
    0.3180    3.7130   -0.0660 C   0  0  0  0  0  0  0  0  0  0  0  0
    2.7010    3.4730   -0.4000 C   0  0  0  0  0  0  0  0  0  0  0  0
    1.2400    1.5530   -0.6600 C   0  0  0  0  0  0  0  0  0  0  0  0
    1.5970    4.2530   -0.0890 C   0  0  0  0  0  0  0  0  0  0  0  0
    0.1520    2.3630   -0.3540 C   0  0  0  0  0  0  0  0  0  0  0  0
    2.5060    2.1260   -0.6810 C   0  0  0  0  0  0  0  0  0  0  0  0
    6.3350    4.4390   -0.8510 C   0  0  0  0  0  0  0  0  0  0  0  0
    8.7190    4.3300   -0.3760 C   0  0  0  0  0  0  0  0  0  0  0  0
    8.7540    5.7170   -0.2270 C   0  0  0  0  0  0  0  0  0  0  0  0
    7.5140    3.7210   -0.6990 C   0  0  0  0  0  0  0  0  0  0  0  0
    5.0900    3.7590   -1.1420 C   0  0  0  0  0  0  0  0  0  0  0  0
   -1.7900    4.2800    1.1330 C   0  0  0  0  0  0  0  0  0  0  0  0
    6.3990    5.8230   -0.7000 C   0  0  0  0  0  0  0  0  0  0  0  0
    7.5920    6.4520   -0.3930 C   0  0  0  0  0  0  0  0  0  0  0  0
    1.0510    0.0610   -0.9790 C   0  0  0  0  0  0  0  0  0  0  0  0
   -1.1260    5.7470   -0.2580 C   0  0  0  0  0  0  0  0  0  0  0  0
   -2.6240    5.3390    1.1120 C   0  0  0  0  0  0  0  0  0  0  0  0
   10.0490    6.4400    0.1220 C   0  0  0  0  0  0  0  0  0  0  0  0
   10.1200    2.3530    0.3430 C   0  0  0  0  0  0  0  0  0  0  0  0
   -3.8820    5.5630    1.9180 C   0  0  0  0  0  0  0  0  0  0  0  0
   11.6790    0.7830    0.7760 C   0  0  0  0  0  0  0  0  0  0  0  0
   13.0460    0.3090    0.6820 C   0  0  0  0  0  0  0  0  0  0  0  0
   10.6970    0.0400    1.4060 C   0  0  0  0  0  0  0  0  0  0  0  0
    9.4270    0.5520    1.4640 C   0  0  0  0  0  0  0  0  0  0  0  0
   13.8350    0.5810   -0.4290 C   0  0  0  0  0  0  0  0  0  0  0  0
   13.6380   -0.4390    1.7010 C   0  0  0  0  0  0  0  0  0  0  0  0
   15.1210    0.0860   -0.4540 C   0  0  0  0  0  0  0  0  0  0  0  0
   15.5820   -0.6550    0.6190 C   0  0  0  0  0  0  0  0  0  0  0  0
    1.7380    5.2950    0.1360 H   0  0  0  0  0  0  0  0  0  0  0  0
   -0.8430    1.9470   -0.3410 H   0  0  0  0  0  0  0  0  0  0  0  0
    3.3640    1.5190   -0.9180 H   0  0  0  0  0  0  0  0  0  0  0  0
    4.1130    4.7970    0.2910 H   0  0  0  0  0  0  0  0  0  0  0  0
    7.4850    2.6550   -0.8390 H   0  0  0  0  0  0  0  0  0  0  0  0
   -1.8330    3.3800    1.7170 H   0  0  0  0  0  0  0  0  0  0  0  0
    5.5110    6.4150   -0.8330 H   0  0  0  0  0  0  0  0  0  0  0  0
    7.6100    7.5230   -0.2850 H   0  0  0  0  0  0  0  0  0  0  0  0
   -0.5180    6.2180   -1.0080 H   0  0  0  0  0  0  0  0  0  0  0  0
   10.7590    4.0230   -0.4800 H   0  0  0  0  0  0  0  0  0  0  0  0
   10.4740    6.0220    1.0180 H   0  0  0  0  0  0  0  0  0  0  0  0
   10.7560    6.3380   -0.6820 H   0  0  0  0  0  0  0  0  0  0  0  0
    9.8750    7.4870    0.2890 H   0  0  0  0  0  0  0  0  0  0  0  0
   -3.7750    6.4500    2.5140 H   0  0  0  0  0  0  0  0  0  0  0  0
   -4.7180    5.6890    1.2540 H   0  0  0  0  0  0  0  0  0  0  0  0
   -4.0670    4.7240    2.5630 H   0  0  0  0  0  0  0  0  0  0  0  0
   10.9100   -0.9200    1.8340 H   0  0  0  0  0  0  0  0  0  0  0  0
    8.6410   -0.0030    1.9480 H   0  0  0  0  0  0  0  0  0  0  0  0
   13.4480    1.1610   -1.2490 H   0  0  0  0  0  0  0  0  0  0  0  0
   13.0600   -0.6420    2.5850 H   0  0  0  0  0  0  0  0  0  0  0  0
   15.7620    0.2720   -1.2960 H   0  0  0  0  0  0  0  0  0  0  0  0
   16.5880   -1.0400    0.5900 H   0  0  0  0  0  0  0  0  0  0  0  0
  1 26  1  0  0  0  0
  2 26  1  0  0  0  0
  3 26  1  0  0  0  0
  4 22  2  0  0  0  0
  5 12  1  0  0  0  0
  5 23  1  0  0  0  0
  5 27  1  0  0  0  0
  6 13  1  0  0  0  0
  6 22  1  0  0  0  0
  6 43  1  0  0  0  0
  7 19  1  0  0  0  0
  7 30  1  0  0  0  0
  7 49  1  0  0  0  0
  8 27  2  0  0  0  0
  8 28  1  0  0  0  0
  9 30  2  0  0  0  0
  9 32  1  0  0  0  0
 10 30  1  0  0  0  0
 10 35  2  0  0  0  0
 11 37  2  0  0  0  0
 11 39  1  0  0  0  0
 12 15  2  0  0  0  0
 12 16  1  0  0  0  0
 13 15  1  0  0  0  0
 13 17  2  0  0  0  0
 14 16  2  0  0  0  0
 14 17  1  0  0  0  0
 14 26  1  0  0  0  0
 15 40  1  0  0  0  0
 16 41  1  0  0  0  0
 17 42  1  0  0  0  0
 18 21  2  0  0  0  0
 18 22  1  0  0  0  0
 18 24  1  0  0  0  0
 19 20  2  0  0  0  0
 19 21  1  0  0  0  0
 20 25  1  0  0  0  0
 20 29  1  0  0  0  0
 21 44  1  0  0  0  0
 23 28  2  0  0  0  0
 23 45  1  0  0  0  0
 24 25  2  0  0  0  0
 24 46  1  0  0  0  0
 25 47  1  0  0  0  0
 27 48  1  0  0  0  0
 28 31  1  0  0  0  0
 29 50  1  0  0  0  0
 29 51  1  0  0  0  0
 29 52  1  0  0  0  0
 31 53  1  0  0  0  0
 31 54  1  0  0  0  0
 31 55  1  0  0  0  0
 32 33  1  0  0  0  0
 32 34  2  0  0  0  0
 33 36  2  0  0  0  0
 33 37  1  0  0  0  0
 34 35  1  0  0  0  0
 34 56  1  0  0  0  0
 35 57  1  0  0  0  0
 36 38  1  0  0  0  0
 36 58  1  0  0  0  0
 37 59  1  0  0  0  0
 38 39  2  0  0  0  0
 38 60  1  0  0  0  0
 39 61  1  0  0  0  0
M  END
$$$$
Nitrendipine
  MOE2024           3D

 46 47  0  0  1  0  0  0  0  0999 V2000
    7.5220   -0.6440    0.2970 O   0  0  0  0  0  0  0  0  0  0  0  0
    2.0510    2.4900    0.7310 O   0  0  0  0  0  0  0  0  0  0  0  0
    5.8210   -0.4510    1.6650 O   0  0  0  0  0  0  0  0  0  0  0  0
    2.0150    3.7740   -1.0400 O   0  0  0  0  0  0  0  0  0  0  0  0
    0.8130   -1.9190    1.3140 O   0  5  0  0  0  0  0  0  0  0  0  0
    1.0230   -3.4730   -0.1540 O   0  0  0  0  0  0  0  0  0  0  0  0
    6.3080    3.2090   -1.2380 N   0  0  0  0  0  0  0  0  0  0  0  0
    1.3310   -2.3410    0.2630 N   0  3  0  0  0  0  0  0  0  0  0  0
    4.5470    1.4860    0.1370 C   0  0  1  0  0  0  0  0  0  0  0  0
    6.0560    1.2220    0.0540 C   0  0  0  0  0  0  0  0  0  0  0  0
    4.0800    2.8140   -0.4780 C   0  0  0  0  0  0  0  0  0  0  0  0
    3.8080    0.3380   -0.5620 C   0  0  0  0  0  0  0  0  0  0  0  0
    6.8420    2.0990   -0.6280 C   0  0  0  0  0  0  0  0  0  0  0  0
    4.9900    3.5870   -1.1310 C   0  0  0  0  0  0  0  0  0  0  0  0
    2.9360   -0.4780    0.1440 C   0  0  0  0  0  0  0  0  0  0  0  0
    6.4430    0.0170    0.7270 C   0  0  0  0  0  0  0  0  0  0  0  0
    4.0020    0.1050   -1.9150 C   0  0  0  0  0  0  0  0  0  0  0  0
    8.3520    2.0020   -0.7900 C   0  0  0  0  0  0  0  0  0  0  0  0
    4.7070    4.9260   -1.7960 C   0  0  0  0  0  0  0  0  0  0  0  0
    2.6780    3.0690   -0.3040 C   0  0  0  0  0  0  0  0  0  0  0  0
    2.2450   -1.5190   -0.4750 C   0  0  0  0  0  0  0  0  0  0  0  0
    3.3350   -0.9270   -2.5500 C   0  0  0  0  0  0  0  0  0  0  0  0
    2.4650   -1.7310   -1.8360 C   0  0  0  0  0  0  0  0  0  0  0  0
    7.9380   -1.8520    0.8930 C   0  0  0  0  0  0  0  0  0  0  0  0
    0.6620    2.6460    0.9500 C   0  0  0  0  0  0  0  0  0  0  0  0
    9.2000   -2.3220    0.1770 C   0  0  0  0  0  0  0  0  0  0  0  0
    4.2900    1.5050    1.1820 H   0  0  0  0  0  0  0  0  0  0  0  0
    6.9430    3.8260   -1.7600 H   0  0  0  0  0  0  0  0  0  0  0  0
    2.7870   -0.3040    1.1980 H   0  0  0  0  0  0  0  0  0  0  0  0
    4.6750    0.7310   -2.4790 H   0  0  0  0  0  0  0  0  0  0  0  0
    8.8010    1.4110   -0.0160 H   0  0  0  0  0  0  0  0  0  0  0  0
    8.5880    1.5660   -1.7440 H   0  0  0  0  0  0  0  0  0  0  0  0
    8.7950    2.9800   -0.7360 H   0  0  0  0  0  0  0  0  0  0  0  0
    5.4970    5.6220   -1.5780 H   0  0  0  0  0  0  0  0  0  0  0  0
    4.6410    4.7970   -2.8610 H   0  0  0  0  0  0  0  0  0  0  0  0
    3.7930    5.3680   -1.4480 H   0  0  0  0  0  0  0  0  0  0  0  0
    3.4940   -1.1010   -3.6010 H   0  0  0  0  0  0  0  0  0  0  0  0
    1.9510   -2.5300   -2.3440 H   0  0  0  0  0  0  0  0  0  0  0  0
    8.1300   -1.6700    1.9370 H   0  0  0  0  0  0  0  0  0  0  0  0
    7.1430   -2.5730    0.7920 H   0  0  0  0  0  0  0  0  0  0  0  0
    0.3880    2.0790    1.8210 H   0  0  0  0  0  0  0  0  0  0  0  0
    0.4480    3.6900    1.1020 H   0  0  0  0  0  0  0  0  0  0  0  0
    0.1310    2.2800    0.0880 H   0  0  0  0  0  0  0  0  0  0  0  0
    9.5380   -3.2460    0.6090 H   0  0  0  0  0  0  0  0  0  0  0  0
    9.9800   -1.5900    0.2800 H   0  0  0  0  0  0  0  0  0  0  0  0
    8.9940   -2.4860   -0.8660 H   0  0  0  0  0  0  0  0  0  0  0  0
  1 16  1  0  0  0  0
  1 24  1  0  0  0  0
  2 20  1  0  0  0  0
  2 25  1  0  0  0  0
  3 16  2  0  0  0  0
  4 20  2  0  0  0  0
  5  8  1  0  0  0  0
  6  8  2  0  0  0  0
  7 13  1  0  0  0  0
  7 14  1  0  0  0  0
  7 28  1  0  0  0  0
  8 21  1  0  0  0  0
  9 10  1  0  0  0  0
  9 11  1  0  0  0  0
  9 12  1  0  0  0  0
  9 27  1  0  0  0  0
 10 13  2  0  0  0  0
 10 16  1  0  0  0  0
 11 14  2  0  0  0  0
 11 20  1  0  0  0  0
 12 15  2  0  0  0  0
 12 17  1  0  0  0  0
 13 18  1  0  0  0  0
 14 19  1  0  0  0  0
 15 21  1  0  0  0  0
 15 29  1  0  0  0  0
 17 22  2  0  0  0  0
 17 30  1  0  0  0  0
 18 31  1  0  0  0  0
 18 32  1  0  0  0  0
 18 33  1  0  0  0  0
 19 34  1  0  0  0  0
 19 35  1  0  0  0  0
 19 36  1  0  0  0  0
 21 23  2  0  0  0  0
 22 23  1  0  0  0  0
 22 37  1  0  0  0  0
 23 38  1  0  0  0  0
 24 26  1  0  0  0  0
 24 39  1  0  0  0  0
 24 40  1  0  0  0  0
 25 41  1  0  0  0  0
 25 42  1  0  0  0  0
 25 43  1  0  0  0  0
 26 44  1  0  0  0  0
 26 45  1  0  0  0  0
 26 46  1  0  0  0  0
M  CHG  1   5  -1
M  CHG  1   8   1
M  END
$$$$
Pimozide
  MOE2024           3D

 63 67  0  0  0  0  0  0  0  0999 V2000
    0.5240    8.4060   -1.3660 F   0  0  0  0  0  0  0  0  0  0  0  0
   -3.5020    0.1460   -0.1390 F   0  0  0  0  0  0  0  0  0  0  0  0
   10.0540    4.5320    3.4510 O   0  0  0  0  0  0  0  0  0  0  0  0
    6.1410    2.8300    0.2480 N   0  0  0  0  0  0  0  0  0  0  0  0
    9.9260    4.3920    1.1460 N   0  0  0  0  0  0  0  0  0  0  0  0
   11.7880    5.1220    2.1150 N   0  0  0  0  0  0  0  0  0  0  0  0
    8.5610    3.8270    1.0290 C   0  0  0  0  0  0  0  0  0  0  0  0
    7.6380    4.7630    0.2300 C   0  0  0  0  0  0  0  0  0  0  0  0
    8.6080    2.4200    0.4270 C   0  0  0  0  0  0  0  0  0  0  0  0
    6.5500    4.0020   -0.5370 C   0  0  0  0  0  0  0  0  0  0  0  0
    7.2030    1.8080    0.3160 C   0  0  0  0  0  0  0  0  0  0  0  0
    4.8740    2.2450   -0.2000 C   0  0  0  0  0  0  0  0  0  0  0  0
    3.6980    3.0730    0.3250 C   0  0  0  0  0  0  0  0  0  0  0  0
   10.8510    4.6810    0.1370 C   0  0  0  0  0  0  0  0  0  0  0  0
    2.3550    2.3910    0.0120 C   0  0  0  0  0  0  0  0  0  0  0  0
   10.5350    4.6690    2.3390 C   0  0  0  0  0  0  0  0  0  0  0  0
    1.1440    3.1790    0.5460 C   0  0  0  0  0  0  0  0  0  0  0  0
   12.0080    5.1360    0.7500 C   0  0  0  0  0  0  0  0  0  0  0  0
   10.7890    4.5930   -1.2480 C   0  0  0  0  0  0  0  0  0  0  0  0
    0.9920    4.6000   -0.0170 C   0  0  0  0  0  0  0  0  0  0  0  0
   -0.1330    2.3590    0.3440 C   0  0  0  0  0  0  0  0  0  0  0  0
   13.1200    5.5060    0.0090 C   0  0  0  0  0  0  0  0  0  0  0  0
   11.8960    4.9610   -1.9950 C   0  0  0  0  0  0  0  0  0  0  0  0
   13.0550    5.4150   -1.3700 C   0  0  0  0  0  0  0  0  0  0  0  0
    0.4470    5.5800    0.8070 C   0  0  0  0  0  0  0  0  0  0  0  0
   -0.6340    1.6030    1.4000 C   0  0  0  0  0  0  0  0  0  0  0  0
    1.3700    4.9420   -1.3160 C   0  0  0  0  0  0  0  0  0  0  0  0
   -0.7970    2.3480   -0.8790 C   0  0  0  0  0  0  0  0  0  0  0  0
    0.2850    6.8790    0.3560 C   0  0  0  0  0  0  0  0  0  0  0  0
   -1.7830    0.8460    1.2420 C   0  0  0  0  0  0  0  0  0  0  0  0
    1.2130    6.2370   -1.7800 C   0  0  0  0  0  0  0  0  0  0  0  0
   -1.9470    1.5960   -1.0510 C   0  0  0  0  0  0  0  0  0  0  0  0
    0.6730    7.1830   -0.9330 C   0  0  0  0  0  0  0  0  0  0  0  0
   -2.4190    0.8580    0.0160 C   0  0  0  0  0  0  0  0  0  0  0  0
    8.1440    3.7320    2.0190 H   0  0  0  0  0  0  0  0  0  0  0  0
    8.1920    5.3600   -0.4690 H   0  0  0  0  0  0  0  0  0  0  0  0
    7.1620    5.4340    0.9220 H   0  0  0  0  0  0  0  0  0  0  0  0
    9.2230    1.7820    1.0360 H   0  0  0  0  0  0  0  0  0  0  0  0
    9.0400    2.4550   -0.5550 H   0  0  0  0  0  0  0  0  0  0  0  0
    5.7180    4.6620   -0.7070 H   0  0  0  0  0  0  0  0  0  0  0  0
    6.9250    3.6780   -1.4930 H   0  0  0  0  0  0  0  0  0  0  0  0
    7.0180    1.1940    1.1820 H   0  0  0  0  0  0  0  0  0  0  0  0
    7.1650    1.1750   -0.5550 H   0  0  0  0  0  0  0  0  0  0  0  0
    4.7850    1.2470    0.1970 H   0  0  0  0  0  0  0  0  0  0  0  0
    4.8510    2.1840   -1.2760 H   0  0  0  0  0  0  0  0  0  0  0  0
    3.7180    4.0520   -0.1160 H   0  0  0  0  0  0  0  0  0  0  0  0
    3.8030    3.1810    1.3900 H   0  0  0  0  0  0  0  0  0  0  0  0
    2.3500    1.4180    0.4720 H   0  0  0  0  0  0  0  0  0  0  0  0
    2.2540    2.2380   -1.0470 H   0  0  0  0  0  0  0  0  0  0  0  0
    1.2970    3.2820    1.6060 H   0  0  0  0  0  0  0  0  0  0  0  0
   12.4170    5.3830    2.8690 H   0  0  0  0  0  0  0  0  0  0  0  0
    9.8960    4.2460   -1.7310 H   0  0  0  0  0  0  0  0  0  0  0  0
   14.0080    5.8550    0.5040 H   0  0  0  0  0  0  0  0  0  0  0  0
   11.8630    4.8970   -3.0690 H   0  0  0  0  0  0  0  0  0  0  0  0
   13.9060    5.6970   -1.9680 H   0  0  0  0  0  0  0  0  0  0  0  0
    0.1390    5.3330    1.8090 H   0  0  0  0  0  0  0  0  0  0  0  0
   -0.1320    1.5970    2.3520 H   0  0  0  0  0  0  0  0  0  0  0  0
    1.7870    4.2070   -1.9790 H   0  0  0  0  0  0  0  0  0  0  0  0
   -0.4250    2.9260   -1.7060 H   0  0  0  0  0  0  0  0  0  0  0  0
   -0.1350    7.6410    0.9870 H   0  0  0  0  0  0  0  0  0  0  0  0
   -2.1810    0.2590    2.0490 H   0  0  0  0  0  0  0  0  0  0  0  0
    1.5010    6.5110   -2.7790 H   0  0  0  0  0  0  0  0  0  0  0  0
   -2.4690    1.5820   -1.9900 H   0  0  0  0  0  0  0  0  0  0  0  0
  1 33  1  0  0  0  0
  2 34  1  0  0  0  0
  3 16  2  0  0  0  0
  4 10  1  0  0  0  0
  4 11  1  0  0  0  0
  4 12  1  0  0  0  0
  5  7  1  0  0  0  0
  5 14  1  0  0  0  0
  5 16  1  0  0  0  0
  6 16  1  0  0  0  0
  6 18  1  0  0  0  0
  6 51  1  0  0  0  0
  7  8  1  0  0  0  0
  7  9  1  0  0  0  0
  7 35  1  0  0  0  0
  8 10  1  0  0  0  0
  8 36  1  0  0  0  0
  8 37  1  0  0  0  0
  9 11  1  0  0  0  0
  9 38  1  0  0  0  0
  9 39  1  0  0  0  0
 10 40  1  0  0  0  0
 10 41  1  0  0  0  0
 11 42  1  0  0  0  0
 11 43  1  0  0  0  0
 12 13  1  0  0  0  0
 12 44  1  0  0  0  0
 12 45  1  0  0  0  0
 13 15  1  0  0  0  0
 13 46  1  0  0  0  0
 13 47  1  0  0  0  0
 14 18  2  0  0  0  0
 14 19  1  0  0  0  0
 15 17  1  0  0  0  0
 15 48  1  0  0  0  0
 15 49  1  0  0  0  0
 17 20  1  0  0  0  0
 17 21  1  0  0  0  0
 17 50  1  0  0  0  0
 18 22  1  0  0  0  0
 19 23  2  0  0  0  0
 19 52  1  0  0  0  0
 20 25  2  0  0  0  0
 20 27  1  0  0  0  0
 21 26  2  0  0  0  0
 21 28  1  0  0  0  0
 22 24  2  0  0  0  0
 22 53  1  0  0  0  0
 23 24  1  0  0  0  0
 23 54  1  0  0  0  0
 24 55  1  0  0  0  0
 25 29  1  0  0  0  0
 25 56  1  0  0  0  0
 26 30  1  0  0  0  0
 26 57  1  0  0  0  0
 27 31  2  0  0  0  0
 27 58  1  0  0  0  0
 28 32  2  0  0  0  0
 28 59  1  0  0  0  0
 29 33  2  0  0  0  0
 29 60  1  0  0  0  0
 30 34  2  0  0  0  0
 30 61  1  0  0  0  0
 31 33  1  0  0  0  0
 31 62  1  0  0  0  0
 32 34  1  0  0  0  0
 32 63  1  0  0  0  0
M  END
$$$$
Procainamide
  MOE2024           3D

 38 38  0  0  0  0  0  0  0  0999 V2000
    1.4740   -0.4920    0.5660 O   0  0  0  0  0  0  0  0  0  0  0  0
    5.9130    0.2920    0.1570 N   0  0  0  0  0  0  0  0  0  0  0  0
    2.3350    0.9930   -0.8390 N   0  0  0  0  0  0  0  0  0  0  0  0
   -3.7340    3.0920   -0.0980 N   0  0  0  0  0  0  0  0  0  0  0  0
    4.5290    0.7930    0.2890 C   0  0  0  0  0  0  0  0  0  0  0  0
    6.8570    1.1240    0.9170 C   0  0  0  0  0  0  0  0  0  0  0  0
    6.0000   -1.1200    0.5590 C   0  0  0  0  0  0  0  0  0  0  0  0
    3.6800    0.3680   -0.9140 C   0  0  0  0  0  0  0  0  0  0  0  0
    7.2440    2.3450    0.0870 C   0  0  0  0  0  0  0  0  0  0  0  0
    7.1460   -1.7920   -0.1940 C   0  0  0  0  0  0  0  0  0  0  0  0
    1.2940    0.5170   -0.0910 C   0  0  0  0  0  0  0  0  0  0  0  0
    0.0100    1.1910   -0.0850 C   0  0  0  0  0  0  0  0  0  0  0  0
   -0.1200    2.5520   -0.3830 C   0  0  0  0  0  0  0  0  0  0  0  0
   -1.1640    0.4990    0.2270 C   0  0  0  0  0  0  0  0  0  0  0  0
   -1.3510    3.1780   -0.3860 C   0  0  0  0  0  0  0  0  0  0  0  0
   -2.3960    1.1230    0.2260 C   0  0  0  0  0  0  0  0  0  0  0  0
   -2.5060    2.4700   -0.0870 C   0  0  0  0  0  0  0  0  0  0  0  0
    4.0850    0.4250    1.1990 H   0  0  0  0  0  0  0  0  0  0  0  0
    4.5310    1.8670    0.3250 H   0  0  0  0  0  0  0  0  0  0  0  0
    7.7550    0.5680    1.1270 H   0  0  0  0  0  0  0  0  0  0  0  0
    6.4240    1.4210    1.8580 H   0  0  0  0  0  0  0  0  0  0  0  0
    5.0890   -1.6370    0.3090 H   0  0  0  0  0  0  0  0  0  0  0  0
    6.1420   -1.2010    1.6240 H   0  0  0  0  0  0  0  0  0  0  0  0
    3.5690   -0.7020   -0.9270 H   0  0  0  0  0  0  0  0  0  0  0  0
    4.1670    0.6760   -1.8220 H   0  0  0  0  0  0  0  0  0  0  0  0
    7.9890    2.9150    0.6110 H   0  0  0  0  0  0  0  0  0  0  0  0
    7.6550    2.0280   -0.8550 H   0  0  0  0  0  0  0  0  0  0  0  0
    6.3960    2.9800   -0.0900 H   0  0  0  0  0  0  0  0  0  0  0  0
    7.1720   -2.8380    0.0500 H   0  0  0  0  0  0  0  0  0  0  0  0
    8.0920   -1.3590    0.0710 H   0  0  0  0  0  0  0  0  0  0  0  0
    6.9930   -1.6910   -1.2540 H   0  0  0  0  0  0  0  0  0  0  0  0
    2.1820    1.7840   -1.4650 H   0  0  0  0  0  0  0  0  0  0  0  0
    0.7570    3.1320   -0.6060 H   0  0  0  0  0  0  0  0  0  0  0  0
   -1.0970   -0.5460    0.4750 H   0  0  0  0  0  0  0  0  0  0  0  0
   -1.4230    4.2250   -0.6150 H   0  0  0  0  0  0  0  0  0  0  0  0
   -3.2810    0.5650    0.4730 H   0  0  0  0  0  0  0  0  0  0  0  0
   -3.8340    3.9840   -0.5880 H   0  0  0  0  0  0  0  0  0  0  0  0
   -4.5780    2.5130   -0.1280 H   0  0  0  0  0  0  0  0  0  0  0  0
  1 11  2  0  0  0  0
  2  5  1  0  0  0  0
  2  6  1  0  0  0  0
  2  7  1  0  0  0  0
  3  8  1  0  0  0  0
  3 11  1  0  0  0  0
  3 32  1  0  0  0  0
  4 17  1  0  0  0  0
  4 37  1  0  0  0  0
  4 38  1  0  0  0  0
  5  8  1  0  0  0  0
  5 18  1  0  0  0  0
  5 19  1  0  0  0  0
  6  9  1  0  0  0  0
  6 20  1  0  0  0  0
  6 21  1  0  0  0  0
  7 10  1  0  0  0  0
  7 22  1  0  0  0  0
  7 23  1  0  0  0  0
  8 24  1  0  0  0  0
  8 25  1  0  0  0  0
  9 26  1  0  0  0  0
  9 27  1  0  0  0  0
  9 28  1  0  0  0  0
 10 29  1  0  0  0  0
 10 30  1  0  0  0  0
 10 31  1  0  0  0  0
 11 12  1  0  0  0  0
 12 13  2  0  0  0  0
 12 14  1  0  0  0  0
 13 15  1  0  0  0  0
 13 33  1  0  0  0  0
 14 16  2  0  0  0  0
 14 34  1  0  0  0  0
 15 17  2  0  0  0  0
 15 35  1  0  0  0  0
 16 17  1  0  0  0  0
 16 36  1  0  0  0  0
M  END
$$$$
Quinidine
  MOE2024           3D

 48 51  0  0  1  0  0  0  0  0999 V2000
    3.1220   -1.0440    2.8690 O   0  0  0  0  0  0  0  0  0  0  0  0
   -2.4130   -1.1100   -0.4530 O   0  0  0  0  0  0  0  0  0  0  0  0
    3.4120   -2.3560    0.1800 N   0  0  2  0  0  0  0  0  0  0  0  0
    0.0830    2.9060    2.3790 N   0  0  0  0  0  0  0  0  0  0  0  0
    4.8710   -0.4310   -0.8080 C   0  0  1  0  0  0  0  0  0  0  0  0
    2.7700   -1.0310    0.4720 C   0  0  2  0  0  0  0  0  0  0  0  0
    3.7180    0.1200    0.0560 C   0  0  0  0  0  0  0  0  0  0  0  0
    5.7290   -1.3750    0.0590 C   0  0  2  0  0  0  0  0  0  0  0  0
    4.2340   -1.2980   -1.9170 C   0  0  0  0  0  0  0  0  0  0  0  0
    4.8130   -2.4560    0.6820 C   0  0  0  0  0  0  0  0  0  0  0  0
    3.4690   -2.4930   -1.2940 C   0  0  0  0  0  0  0  0  0  0  0  0
    2.1490   -0.9000    1.8910 C   0  0  2  0  0  0  0  0  0  0  0  0
    6.5240   -0.6380    1.1310 C   0  0  0  0  0  0  0  0  0  0  0  0
    1.4070    0.4300    2.0750 C   0  0  0  0  0  0  0  0  0  0  0  0
    7.8560   -0.5390    1.1640 C   0  0  0  0  0  0  0  0  0  0  0  0
    0.1230    0.6270    1.5100 C   0  0  0  0  0  0  0  0  0  0  0  0
    1.9480    1.4770    2.7670 C   0  0  0  0  0  0  0  0  0  0  0  0
   -0.4900    1.8920    1.6870 C   0  0  0  0  0  0  0  0  0  0  0  0
   -0.5900   -0.3510    0.7800 C   0  0  0  0  0  0  0  0  0  0  0  0
    1.2510    2.6830    2.8930 C   0  0  0  0  0  0  0  0  0  0  0  0
   -1.7540    2.1210    1.1210 C   0  0  0  0  0  0  0  0  0  0  0  0
   -1.8230   -0.1040    0.2360 C   0  0  0  0  0  0  0  0  0  0  0  0
   -2.4160    1.1580    0.4090 C   0  0  0  0  0  0  0  0  0  0  0  0
   -3.6950   -0.9690   -1.0240 C   0  0  0  0  0  0  0  0  0  0  0  0
    5.4680    0.3640   -1.2220 H   0  0  0  0  0  0  0  0  0  0  0  0
    1.9250   -0.9590   -0.1900 H   0  0  0  0  0  0  0  0  0  0  0  0
    3.1550    0.8490   -0.5000 H   0  0  0  0  0  0  0  0  0  0  0  0
    4.1010    0.6270    0.9210 H   0  0  0  0  0  0  0  0  0  0  0  0
    6.4370   -1.8710   -0.5840 H   0  0  0  0  0  0  0  0  0  0  0  0
    3.5550   -0.7040   -2.5020 H   0  0  0  0  0  0  0  0  0  0  0  0
    4.9910   -1.6690   -2.5850 H   0  0  0  0  0  0  0  0  0  0  0  0
    4.8370   -2.3820    1.7510 H   0  0  0  0  0  0  0  0  0  0  0  0
    5.2030   -3.4280    0.4350 H   0  0  0  0  0  0  0  0  0  0  0  0
    2.4690   -2.5400   -1.6940 H   0  0  0  0  0  0  0  0  0  0  0  0
    3.9600   -3.4180   -1.5470 H   0  0  0  0  0  0  0  0  0  0  0  0
    1.4580   -1.7110    2.0390 H   0  0  0  0  0  0  0  0  0  0  0  0
    5.9020   -0.1930    1.8910 H   0  0  0  0  0  0  0  0  0  0  0  0
    3.5930   -1.8760    2.6700 H   0  0  0  0  0  0  0  0  0  0  0  0
    8.5170   -0.9680    0.4300 H   0  0  0  0  0  0  0  0  0  0  0  0
    8.3980   -0.0150    1.9320 H   0  0  0  0  0  0  0  0  0  0  0  0
    2.9160    1.4060    3.2300 H   0  0  0  0  0  0  0  0  0  0  0  0
   -0.1740   -1.3290    0.6350 H   0  0  0  0  0  0  0  0  0  0  0  0
    1.7200    3.4760    3.4500 H   0  0  0  0  0  0  0  0  0  0  0  0
   -2.1890    3.0920    1.2690 H   0  0  0  0  0  0  0  0  0  0  0  0
   -3.3800    1.3760   -0.0080 H   0  0  0  0  0  0  0  0  0  0  0  0
   -4.4030   -0.7520   -0.2440 H   0  0  0  0  0  0  0  0  0  0  0  0
   -3.9510   -1.8970   -1.5020 H   0  0  0  0  0  0  0  0  0  0  0  0
   -3.6670   -0.1780   -1.7530 H   0  0  0  0  0  0  0  0  0  0  0  0
  1 12  1  0  0  0  0
  1 38  1  0  0  0  0
  2 22  1  0  0  0  0
  2 24  1  0  0  0  0
  3  6  1  0  0  0  0
  3 10  1  0  0  0  0
  3 11  1  0  0  0  0
  4 18  1  0  0  0  0
  4 20  2  0  0  0  0
  5  7  1  0  0  0  0
  5  8  1  0  0  0  0
  5  9  1  0  0  0  0
  5 25  1  0  0  0  0
  6  7  1  0  0  0  0
  6 12  1  0  0  0  0
  6 26  1  0  0  0  0
  7 27  1  0  0  0  0
  7 28  1  0  0  0  0
  8 10  1  0  0  0  0
  8 13  1  0  0  0  0
  8 29  1  0  0  0  0
  9 11  1  0  0  0  0
  9 30  1  0  0  0  0
  9 31  1  0  0  0  0
 10 32  1  0  0  0  0
 10 33  1  0  0  0  0
 11 34  1  0  0  0  0
 11 35  1  0  0  0  0
 12 14  1  0  0  0  0
 12 36  1  0  0  0  0
 13 15  2  0  0  0  0
 13 37  1  0  0  0  0
 14 16  1  0  0  0  0
 14 17  2  0  0  0  0
 15 39  1  0  0  0  0
 15 40  1  0  0  0  0
 16 18  1  0  0  0  0
 16 19  2  0  0  0  0
 17 20  1  0  0  0  0
 17 41  1  0  0  0  0
 18 21  2  0  0  0  0
 19 22  1  0  0  0  0
 19 42  1  0  0  0  0
 20 43  1  0  0  0  0
 21 23  1  0  0  0  0
 21 44  1  0  0  0  0
 22 23  2  0  0  0  0
 23 45  1  0  0  0  0
 24 46  1  0  0  0  0
 24 47  1  0  0  0  0
 24 48  1  0  0  0  0
M  END
$$$$
Risperidone
  MOE2024           3D

 57 61  0  0  0  0  0  0  0  0999 V2000
   18.5980   -2.0120    0.9890 F   0  0  0  0  0  0  0  0  0  0  0  0
   15.1000    0.5270   -0.9760 O   0  0  0  0  0  0  0  0  0  0  0  0
    5.2620   -1.8430   -0.0080 O   0  0  0  0  0  0  0  0  0  0  0  0
    9.6640   -2.4700   -0.4470 N   0  0  0  0  0  0  0  0  0  0  0  0
    3.9290   -3.6520    0.1570 N   0  0  0  0  0  0  0  0  0  0  0  0
   13.8040    0.3330   -1.0600 N   0  0  0  0  0  0  0  0  0  0  0  0
    4.8420   -5.7150    0.8120 N   0  0  0  0  0  0  0  0  0  0  0  0
   12.1630   -1.4020   -0.3220 C   0  0  0  0  0  0  0  0  0  0  0  0
   11.0280   -0.3670   -0.3080 C   0  0  0  0  0  0  0  0  0  0  0  0
   11.9130   -2.4300   -1.4410 C   0  0  0  0  0  0  0  0  0  0  0  0
    9.6600   -1.0330   -0.0860 C   0  0  0  0  0  0  0  0  0  0  0  0
   10.4210   -2.7050   -1.6820 C   0  0  0  0  0  0  0  0  0  0  0  0
    8.2960   -3.0010   -0.5660 C   0  0  0  0  0  0  0  0  0  0  0  0
   13.5440   -0.7730   -0.4650 C   0  0  0  0  0  0  0  0  0  0  0  0
    7.6210   -3.1150    0.8040 C   0  0  0  0  0  0  0  0  0  0  0  0
    6.2710   -3.8230    0.6710 C   0  0  0  0  0  0  0  0  0  0  0  0
   14.7150   -1.3640    0.0450 C   0  0  0  0  0  0  0  0  0  0  0  0
    2.7450   -2.8010   -0.1640 C   0  0  0  0  0  0  0  0  0  0  0  0
    1.5050   -3.6100   -0.5580 C   0  0  0  0  0  0  0  0  0  0  0  0
    3.8390   -4.9940    0.4520 C   0  0  0  0  0  0  0  0  0  0  0  0
    1.2880   -4.7720    0.4100 C   0  0  0  0  0  0  0  0  0  0  0  0
    2.4980   -5.7070    0.3370 C   0  0  0  0  0  0  0  0  0  0  0  0
    5.1560   -3.0360    0.2570 C   0  0  0  0  0  0  0  0  0  0  0  0
    6.0730   -5.1440    0.9200 C   0  0  0  0  0  0  0  0  0  0  0  0
   15.6860   -0.4640   -0.3230 C   0  0  0  0  0  0  0  0  0  0  0  0
   15.0680   -2.5200    0.7540 C   0  0  0  0  0  0  0  0  0  0  0  0
    7.1430   -6.1420    1.3320 C   0  0  0  0  0  0  0  0  0  0  0  0
   17.0300   -0.6470   -0.0200 C   0  0  0  0  0  0  0  0  0  0  0  0
   16.3950   -2.7300    1.0700 C   0  0  0  0  0  0  0  0  0  0  0  0
   17.3500   -1.7890    0.6770 C   0  0  0  0  0  0  0  0  0  0  0  0
   12.1290   -1.9180    0.6220 H   0  0  0  0  0  0  0  0  0  0  0  0
   11.0140    0.1550   -1.2480 H   0  0  0  0  0  0  0  0  0  0  0  0
   11.2000    0.3630    0.4620 H   0  0  0  0  0  0  0  0  0  0  0  0
   12.3410   -2.0780   -2.3630 H   0  0  0  0  0  0  0  0  0  0  0  0
   12.4060   -3.3500   -1.1870 H   0  0  0  0  0  0  0  0  0  0  0  0
    8.9150   -0.5060   -0.6590 H   0  0  0  0  0  0  0  0  0  0  0  0
    9.4000   -0.9450    0.9550 H   0  0  0  0  0  0  0  0  0  0  0  0
   10.3010   -3.7250   -2.0080 H   0  0  0  0  0  0  0  0  0  0  0  0
   10.0480   -2.0560   -2.4570 H   0  0  0  0  0  0  0  0  0  0  0  0
    8.3370   -3.9880   -0.9960 H   0  0  0  0  0  0  0  0  0  0  0  0
    7.7080   -2.3780   -1.2200 H   0  0  0  0  0  0  0  0  0  0  0  0
    7.4650   -2.1360    1.2190 H   0  0  0  0  0  0  0  0  0  0  0  0
    8.2690   -3.6410    1.4770 H   0  0  0  0  0  0  0  0  0  0  0  0
    2.5200   -2.2050    0.7040 H   0  0  0  0  0  0  0  0  0  0  0  0
    2.9930   -2.1300   -0.9690 H   0  0  0  0  0  0  0  0  0  0  0  0
    0.6460   -2.9630   -0.5530 H   0  0  0  0  0  0  0  0  0  0  0  0
    1.6270   -3.9830   -1.5600 H   0  0  0  0  0  0  0  0  0  0  0  0
    0.3930   -5.3110    0.1500 H   0  0  0  0  0  0  0  0  0  0  0  0
    1.1780   -4.3960    1.4130 H   0  0  0  0  0  0  0  0  0  0  0  0
    2.4250   -6.4460    1.1150 H   0  0  0  0  0  0  0  0  0  0  0  0
    2.4880   -6.2260   -0.6040 H   0  0  0  0  0  0  0  0  0  0  0  0
   14.3070   -3.2250    1.0410 H   0  0  0  0  0  0  0  0  0  0  0  0
    7.0340   -6.3740    2.3750 H   0  0  0  0  0  0  0  0  0  0  0  0
    8.1360   -5.7800    1.1530 H   0  0  0  0  0  0  0  0  0  0  0  0
    7.0210   -7.0490    0.7680 H   0  0  0  0  0  0  0  0  0  0  0  0
   17.7710    0.0700   -0.3180 H   0  0  0  0  0  0  0  0  0  0  0  0
   16.7100   -3.6030    1.6130 H   0  0  0  0  0  0  0  0  0  0  0  0
  1 30  1  0  0  0  0
  2  6  1  0  0  0  0
  2 25  1  0  0  0  0
  3 23  2  0  0  0  0
  4 11  1  0  0  0  0
  4 12  1  0  0  0  0
  4 13  1  0  0  0  0
  5 18  1  0  0  0  0
  5 20  1  0  0  0  0
  5 23  1  0  0  0  0
  6 14  2  0  0  0  0
  7 20  2  0  0  0  0
  7 24  1  0  0  0  0
  8  9  1  0  0  0  0
  8 10  1  0  0  0  0
  8 14  1  0  0  0  0
  8 31  1  0  0  0  0
  9 11  1  0  0  0  0
  9 32  1  0  0  0  0
  9 33  1  0  0  0  0
 10 12  1  0  0  0  0
 10 34  1  0  0  0  0
 10 35  1  0  0  0  0
 11 36  1  0  0  0  0
 11 37  1  0  0  0  0
 12 38  1  0  0  0  0
 12 39  1  0  0  0  0
 13 15  1  0  0  0  0
 13 40  1  0  0  0  0
 13 41  1  0  0  0  0
 14 17  1  0  0  0  0
 15 16  1  0  0  0  0
 15 42  1  0  0  0  0
 15 43  1  0  0  0  0
 16 23  1  0  0  0  0
 16 24  2  0  0  0  0
 17 25  2  0  0  0  0
 17 26  1  0  0  0  0
 18 19  1  0  0  0  0
 18 44  1  0  0  0  0
 18 45  1  0  0  0  0
 19 21  1  0  0  0  0
 19 46  1  0  0  0  0
 19 47  1  0  0  0  0
 20 22  1  0  0  0  0
 21 22  1  0  0  0  0
 21 48  1  0  0  0  0
 21 49  1  0  0  0  0
 22 50  1  0  0  0  0
 22 51  1  0  0  0  0
 24 27  1  0  0  0  0
 25 28  1  0  0  0  0
 26 29  2  0  0  0  0
 26 52  1  0  0  0  0
 27 53  1  0  0  0  0
 27 54  1  0  0  0  0
 27 55  1  0  0  0  0
 28 30  2  0  0  0  0
 28 56  1  0  0  0  0
 29 30  1  0  0  0  0
 29 57  1  0  0  0  0
M  END
$$$$
Sertindole
  MOE2024           3D

 57 61  0  0  0  0  0  0  0  0999 V2000
    3.2110    8.5450   -2.6630 Cl  0  0  0  0  0  0  0  0  0  0  0  0
   -2.8590    1.0000    1.3770 F   0  0  0  0  0  0  0  0  0  0  0  0
   11.8850    0.7290    0.7310 O   0  0  0  0  0  0  0  0  0  0  0  0
    8.1940    3.5430    0.2550 N   0  0  0  0  0  0  0  0  0  0  0  0
    1.8030    3.4760   -0.0810 N   0  0  0  0  0  0  0  0  0  0  0  0
   11.8790    2.8190   -0.1850 N   0  0  0  0  0  0  0  0  0  0  0  0
   13.7860    1.9120    0.4900 N   0  0  0  0  0  0  0  0  0  0  0  0
    5.5200    3.7710   -0.2780 C   0  0  0  0  0  0  0  0  0  0  0  0
    6.0060    2.3390   -0.0270 C   0  0  0  0  0  0  0  0  0  0  0  0
    6.0970    4.7090    0.7970 C   0  0  0  0  0  0  0  0  0  0  0  0
    7.5410    2.2500   -0.0540 C   0  0  0  0  0  0  0  0  0  0  0  0
    7.4760    4.2690    1.3090 C   0  0  0  0  0  0  0  0  0  0  0  0
    4.0000    3.8740   -0.3160 C   0  0  0  0  0  0  0  0  0  0  0  0
    9.6120    3.3570    0.6210 C   0  0  0  0  0  0  0  0  0  0  0  0
    3.3010    4.9770   -0.8590 C   0  0  0  0  0  0  0  0  0  0  0  0
   10.4540    2.9130   -0.5790 C   0  0  0  0  0  0  0  0  0  0  0  0
    3.0710    2.9990    0.1360 C   0  0  0  0  0  0  0  0  0  0  0  0
    1.9440    4.7040   -0.7020 C   0  0  0  0  0  0  0  0  0  0  0  0
   12.8950    3.8110   -0.5970 C   0  0  0  0  0  0  0  0  0  0  0  0
    3.7020    6.1690   -1.4690 C   0  0  0  0  0  0  0  0  0  0  0  0
   14.2230    3.1600   -0.1660 C   0  0  0  0  0  0  0  0  0  0  0  0
    0.9720    5.6050   -1.1520 C   0  0  0  0  0  0  0  0  0  0  0  0
    0.5980    2.8390    0.2950 C   0  0  0  0  0  0  0  0  0  0  0  0
   12.4610    1.7410    0.3870 C   0  0  0  0  0  0  0  0  0  0  0  0
    2.7370    7.0460   -1.9000 C   0  0  0  0  0  0  0  0  0  0  0  0
    1.3740    6.7780   -1.7500 C   0  0  0  0  0  0  0  0  0  0  0  0
   -0.2790    3.4560    1.1860 C   0  0  0  0  0  0  0  0  0  0  0  0
    0.2780    1.5820   -0.2190 C   0  0  0  0  0  0  0  0  0  0  0  0
   -1.4590    2.8350    1.5580 C   0  0  0  0  0  0  0  0  0  0  0  0
   -0.8990    0.9510    0.1460 C   0  0  0  0  0  0  0  0  0  0  0  0
   -1.7470    1.5910    1.0290 C   0  0  0  0  0  0  0  0  0  0  0  0
    5.9040    4.0740   -1.2370 H   0  0  0  0  0  0  0  0  0  0  0  0
    5.5980    1.6730   -0.7660 H   0  0  0  0  0  0  0  0  0  0  0  0
    5.6590    2.0090    0.9360 H   0  0  0  0  0  0  0  0  0  0  0  0
    6.1720    5.7000    0.3900 H   0  0  0  0  0  0  0  0  0  0  0  0
    5.4280    4.7580    1.6370 H   0  0  0  0  0  0  0  0  0  0  0  0
    7.8600    1.4940    0.6440 H   0  0  0  0  0  0  0  0  0  0  0  0
    7.8510    1.9430   -1.0390 H   0  0  0  0  0  0  0  0  0  0  0  0
    8.0340    5.1400    1.6100 H   0  0  0  0  0  0  0  0  0  0  0  0
    7.3630    3.6270    2.1680 H   0  0  0  0  0  0  0  0  0  0  0  0
   10.0090    4.2930    0.9730 H   0  0  0  0  0  0  0  0  0  0  0  0
    9.6970    2.6300    1.4110 H   0  0  0  0  0  0  0  0  0  0  0  0
   10.3440    3.6190   -1.3830 H   0  0  0  0  0  0  0  0  0  0  0  0
   10.1280    1.9440   -0.9150 H   0  0  0  0  0  0  0  0  0  0  0  0
    3.2210    2.0490    0.6160 H   0  0  0  0  0  0  0  0  0  0  0  0
   12.7370    4.7440   -0.0850 H   0  0  0  0  0  0  0  0  0  0  0  0
   12.8680    3.9640   -1.6620 H   0  0  0  0  0  0  0  0  0  0  0  0
    4.7450    6.3890   -1.5960 H   0  0  0  0  0  0  0  0  0  0  0  0
   14.8400    2.9410   -1.0200 H   0  0  0  0  0  0  0  0  0  0  0  0
   14.7570    3.7860    0.5280 H   0  0  0  0  0  0  0  0  0  0  0  0
   -0.0730    5.3750   -1.0320 H   0  0  0  0  0  0  0  0  0  0  0  0
   14.3910    1.1070    0.6440 H   0  0  0  0  0  0  0  0  0  0  0  0
    0.6590    7.4960   -2.1080 H   0  0  0  0  0  0  0  0  0  0  0  0
   -0.0340    4.4250    1.5890 H   0  0  0  0  0  0  0  0  0  0  0  0
    0.9520    1.1010   -0.9080 H   0  0  0  0  0  0  0  0  0  0  0  0
   -2.1440    3.3000    2.2440 H   0  0  0  0  0  0  0  0  0  0  0  0
   -1.1590   -0.0170   -0.2440 H   0  0  0  0  0  0  0  0  0  0  0  0
  1 25  1  0  0  0  0
  2 31  1  0  0  0  0
  3 24  2  0  0  0  0
  4 11  1  0  0  0  0
  4 12  1  0  0  0  0
  4 14  1  0  0  0  0
  5 17  1  0  0  0  0
  5 18  1  0  0  0  0
  5 23  1  0  0  0  0
  6 16  1  0  0  0  0
  6 19  1  0  0  0  0
  6 24  1  0  0  0  0
  7 21  1  0  0  0  0
  7 24  1  0  0  0  0
  7 52  1  0  0  0  0
  8  9  1  0  0  0  0
  8 10  1  0  0  0  0
  8 13  1  0  0  0  0
  8 32  1  0  0  0  0
  9 11  1  0  0  0  0
  9 33  1  0  0  0  0
  9 34  1  0  0  0  0
 10 12  1  0  0  0  0
 10 35  1  0  0  0  0
 10 36  1  0  0  0  0
 11 37  1  0  0  0  0
 11 38  1  0  0  0  0
 12 39  1  0  0  0  0
 12 40  1  0  0  0  0
 13 15  1  0  0  0  0
 13 17  2  0  0  0  0
 14 16  1  0  0  0  0
 14 41  1  0  0  0  0
 14 42  1  0  0  0  0
 15 18  2  0  0  0  0
 15 20  1  0  0  0  0
 16 43  1  0  0  0  0
 16 44  1  0  0  0  0
 17 45  1  0  0  0  0
 18 22  1  0  0  0  0
 19 21  1  0  0  0  0
 19 46  1  0  0  0  0
 19 47  1  0  0  0  0
 20 25  2  0  0  0  0
 20 48  1  0  0  0  0
 21 49  1  0  0  0  0
 21 50  1  0  0  0  0
 22 26  2  0  0  0  0
 22 51  1  0  0  0  0
 23 27  2  0  0  0  0
 23 28  1  0  0  0  0
 25 26  1  0  0  0  0
 26 53  1  0  0  0  0
 27 29  1  0  0  0  0
 27 54  1  0  0  0  0
 28 30  2  0  0  0  0
 28 55  1  0  0  0  0
 29 31  2  0  0  0  0
 29 56  1  0  0  0  0
 30 31  1  0  0  0  0
 30 57  1  0  0  0  0
M  END
$$$$
Solifenacin
  MOE2024           3D

 53 57  0  0  1  0  0  0  0  0999 V2000
    0.4770   -2.2390   -1.1920 O   0  0  0  0  0  0  0  0  0  0  0  0
   -0.1450   -1.2960    0.7200 O   0  0  0  0  0  0  0  0  0  0  0  0
    3.5410   -1.4370    0.6150 N   0  0  0  0  0  0  0  0  0  0  0  0
   -1.7530   -1.9300   -0.7240 N   0  0  0  0  0  0  0  0  0  0  0  0
    2.3370   -3.5730   -0.2800 C   0  0  0  0  0  0  0  0  0  0  0  0
    1.8920   -2.3090   -1.0510 C   0  0  2  0  0  0  0  0  0  0  0  0
    3.8670   -3.6620   -0.4610 C   0  0  0  0  0  0  0  0  0  0  0  0
    2.1130   -3.3840    1.2330 C   0  0  0  0  0  0  0  0  0  0  0  0
    2.5820   -1.0510   -0.4550 C   0  0  0  0  0  0  0  0  0  0  0  0
    4.5450   -2.3810    0.0800 C   0  0  0  0  0  0  0  0  0  0  0  0
    2.7910   -2.0810    1.7160 C   0  0  0  0  0  0  0  0  0  0  0  0
   -0.4530   -1.7940   -0.3430 C   0  0  0  0  0  0  0  0  0  0  0  0
   -2.8520   -1.5340    0.1900 C   0  0  2  0  0  0  0  0  0  0  0  0
   -2.1940   -2.5050   -2.0180 C   0  0  0  0  0  0  0  0  0  0  0  0
   -3.9500   -2.6080    0.2350 C   0  0  0  0  0  0  0  0  0  0  0  0
   -2.9310   -3.8180   -1.7510 C   0  0  0  0  0  0  0  0  0  0  0  0
   -3.9960   -3.6640   -0.6720 C   0  0  0  0  0  0  0  0  0  0  0  0
   -3.3800   -0.1620   -0.2430 C   0  0  0  0  0  0  0  0  0  0  0  0
   -4.9320   -2.5120    1.2120 C   0  0  0  0  0  0  0  0  0  0  0  0
   -5.0150   -4.6000   -0.5910 C   0  0  0  0  0  0  0  0  0  0  0  0
   -4.5280   -0.0130   -1.0140 C   0  0  0  0  0  0  0  0  0  0  0  0
   -2.6850    0.9760    0.1440 C   0  0  0  0  0  0  0  0  0  0  0  0
   -5.9470   -3.4490    1.2880 C   0  0  0  0  0  0  0  0  0  0  0  0
   -5.9880   -4.4940    0.3850 C   0  0  0  0  0  0  0  0  0  0  0  0
   -4.9720    1.2450   -1.3820 C   0  0  0  0  0  0  0  0  0  0  0  0
   -3.1270    2.2350   -0.2240 C   0  0  0  0  0  0  0  0  0  0  0  0
   -4.2720    2.3700   -0.9870 C   0  0  0  0  0  0  0  0  0  0  0  0
    1.8520   -4.4550   -0.6580 H   0  0  0  0  0  0  0  0  0  0  0  0
    2.2520   -2.4070   -2.0590 H   0  0  0  0  0  0  0  0  0  0  0  0
    4.1160   -3.7870   -1.4990 H   0  0  0  0  0  0  0  0  0  0  0  0
    4.2540   -4.5170    0.0640 H   0  0  0  0  0  0  0  0  0  0  0  0
    1.0650   -3.3600    1.4660 H   0  0  0  0  0  0  0  0  0  0  0  0
    2.5280   -4.2170    1.7720 H   0  0  0  0  0  0  0  0  0  0  0  0
    3.1270   -0.5490   -1.2350 H   0  0  0  0  0  0  0  0  0  0  0  0
    1.8710   -0.3500   -0.0600 H   0  0  0  0  0  0  0  0  0  0  0  0
    5.1020   -1.8970   -0.7050 H   0  0  0  0  0  0  0  0  0  0  0  0
    5.2390   -2.6360    0.8630 H   0  0  0  0  0  0  0  0  0  0  0  0
    2.0470   -1.3950    2.0850 H   0  0  0  0  0  0  0  0  0  0  0  0
    3.4660   -2.2970    2.5260 H   0  0  0  0  0  0  0  0  0  0  0  0
   -2.4680   -1.4410    1.1910 H   0  0  0  0  0  0  0  0  0  0  0  0
   -1.3590   -2.6800   -2.6730 H   0  0  0  0  0  0  0  0  0  0  0  0
   -2.8570   -1.8090   -2.5030 H   0  0  0  0  0  0  0  0  0  0  0  0
   -2.2190   -4.5600   -1.4370 H   0  0  0  0  0  0  0  0  0  0  0  0
   -3.3810   -4.1570   -2.6660 H   0  0  0  0  0  0  0  0  0  0  0  0
   -4.9120   -1.6990    1.9170 H   0  0  0  0  0  0  0  0  0  0  0  0
   -5.0540   -5.4200   -1.2870 H   0  0  0  0  0  0  0  0  0  0  0  0
   -5.0880   -0.8760   -1.3330 H   0  0  0  0  0  0  0  0  0  0  0  0
   -1.7870    0.8830    0.7340 H   0  0  0  0  0  0  0  0  0  0  0  0
   -6.7020   -3.3630    2.0490 H   0  0  0  0  0  0  0  0  0  0  0  0
   -6.7770   -5.2240    0.4430 H   0  0  0  0  0  0  0  0  0  0  0  0
   -5.8630    1.3470   -1.9760 H   0  0  0  0  0  0  0  0  0  0  0  0
   -2.5770    3.1070    0.0840 H   0  0  0  0  0  0  0  0  0  0  0  0
   -4.6180    3.3490   -1.2720 H   0  0  0  0  0  0  0  0  0  0  0  0
  1  6  1  0  0  0  0
  1 12  1  0  0  0  0
  2 12  2  0  0  0  0
  3  9  1  0  0  0  0
  3 10  1  0  0  0  0
  3 11  1  0  0  0  0
  4 12  1  0  0  0  0
  4 13  1  0  0  0  0
  4 14  1  0  0  0  0
  5  6  1  0  0  0  0
  5  7  1  0  0  0  0
  5  8  1  0  0  0  0
  5 28  1  0  0  0  0
  6  9  1  0  0  0  0
  6 29  1  0  0  0  0
  7 10  1  0  0  0  0
  7 30  1  0  0  0  0
  7 31  1  0  0  0  0
  8 11  1  0  0  0  0
  8 32  1  0  0  0  0
  8 33  1  0  0  0  0
  9 34  1  0  0  0  0
  9 35  1  0  0  0  0
 10 36  1  0  0  0  0
 10 37  1  0  0  0  0
 11 38  1  0  0  0  0
 11 39  1  0  0  0  0
 13 15  1  0  0  0  0
 13 18  1  0  0  0  0
 13 40  1  0  0  0  0
 14 16  1  0  0  0  0
 14 41  1  0  0  0  0
 14 42  1  0  0  0  0
 15 17  1  0  0  0  0
 15 19  2  0  0  0  0
 16 17  1  0  0  0  0
 16 43  1  0  0  0  0
 16 44  1  0  0  0  0
 17 20  2  0  0  0  0
 18 21  2  0  0  0  0
 18 22  1  0  0  0  0
 19 23  1  0  0  0  0
 19 45  1  0  0  0  0
 20 24  1  0  0  0  0
 20 46  1  0  0  0  0
 21 25  1  0  0  0  0
 21 47  1  0  0  0  0
 22 26  2  0  0  0  0
 22 48  1  0  0  0  0
 23 24  2  0  0  0  0
 23 49  1  0  0  0  0
 24 50  1  0  0  0  0
 25 27  2  0  0  0  0
 25 51  1  0  0  0  0
 26 27  1  0  0  0  0
 26 52  1  0  0  0  0
 27 53  1  0  0  0  0
M  END
$$$$
Sotalol
  MOE2024           3D

 38 38  0  0  1  0  0  0  0  0999 V2000
   -1.1950   -4.6600    1.1960 S   0  0  0  0  0  0  0  0  0  0  0  0
    5.1940   -1.4390   -0.5750 O   0  0  0  0  0  0  0  0  0  0  0  0
   -0.6760   -4.5030    2.5310 O   0  0  0  0  0  0  0  0  0  0  0  0
   -2.2520   -5.5930    0.9010 O   0  0  0  0  0  0  0  0  0  0  0  0
    7.5500   -2.6200   -0.1260 N   0  0  0  0  0  0  0  0  0  0  0  0
    0.0850   -5.1440    0.1640 N   0  0  0  0  0  0  0  0  0  0  0  0
    5.1830   -2.7800   -0.8980 C   0  0  1  0  0  0  0  0  0  0  0  0
    6.3140   -3.4400   -0.0910 C   0  0  0  0  0  0  0  0  0  0  0  0
    8.5740   -3.1020    0.7780 C   0  0  0  0  0  0  0  0  0  0  0  0
    3.8180   -3.3930   -0.5930 C   0  0  0  0  0  0  0  0  0  0  0  0
    3.1350   -3.0900    0.5770 C   0  0  0  0  0  0  0  0  0  0  0  0
    3.2460   -4.2860   -1.4870 C   0  0  0  0  0  0  0  0  0  0  0  0
    8.3040   -2.5510    2.1750 C   0  0  0  0  0  0  0  0  0  0  0  0
    9.9100   -2.5930    0.2520 C   0  0  0  0  0  0  0  0  0  0  0  0
    1.3250   -4.5560   -0.0500 C   0  0  0  0  0  0  0  0  0  0  0  0
    1.9070   -3.6660    0.8470 C   0  0  0  0  0  0  0  0  0  0  0  0
    2.0170   -4.8600   -1.2150 C   0  0  0  0  0  0  0  0  0  0  0  0
   -1.6370   -3.0720    0.5230 C   0  0  0  0  0  0  0  0  0  0  0  0
    5.3990   -2.8560   -1.9490 H   0  0  0  0  0  0  0  0  0  0  0  0
    6.5070   -4.4240   -0.4810 H   0  0  0  0  0  0  0  0  0  0  0  0
    5.9770   -3.5490    0.9250 H   0  0  0  0  0  0  0  0  0  0  0  0
    8.5860   -4.1810    0.7950 H   0  0  0  0  0  0  0  0  0  0  0  0
    7.9400   -2.6660   -1.0770 H   0  0  0  0  0  0  0  0  0  0  0  0
    3.5640   -2.3970    1.2810 H   0  0  0  0  0  0  0  0  0  0  0  0
    3.7560   -4.5380   -2.4000 H   0  0  0  0  0  0  0  0  0  0  0  0
    9.0960   -2.8390    2.8420 H   0  0  0  0  0  0  0  0  0  0  0  0
    7.3830   -2.9400    2.5680 H   0  0  0  0  0  0  0  0  0  0  0  0
    8.2510   -1.4770    2.1500 H   0  0  0  0  0  0  0  0  0  0  0  0
   10.7030   -2.9090    0.9050 H   0  0  0  0  0  0  0  0  0  0  0  0
    9.9130   -1.5180    0.2080 H   0  0  0  0  0  0  0  0  0  0  0  0
   10.1040   -2.9910   -0.7270 H   0  0  0  0  0  0  0  0  0  0  0  0
    1.4130   -3.4200    1.7680 H   0  0  0  0  0  0  0  0  0  0  0  0
    1.5890   -5.5490   -1.9190 H   0  0  0  0  0  0  0  0  0  0  0  0
    6.1190   -1.2640   -0.2780 H   0  0  0  0  0  0  0  0  0  0  0  0
   -0.2220   -5.8920   -0.4500 H   0  0  0  0  0  0  0  0  0  0  0  0
   -2.4680   -2.6640    1.0640 H   0  0  0  0  0  0  0  0  0  0  0  0
   -0.8100   -2.3940    0.5990 H   0  0  0  0  0  0  0  0  0  0  0  0
   -1.9120   -3.1700   -0.5080 H   0  0  0  0  0  0  0  0  0  0  0  0
  1  3  2  0  0  0  0
  1  4  2  0  0  0  0
  1  6  1  0  0  0  0
  1 18  1  0  0  0  0
  2  7  1  0  0  0  0
  2 34  1  0  0  0  0
  5  8  1  0  0  0  0
  5  9  1  0  0  0  0
  5 23  1  0  0  0  0
  6 15  1  0  0  0  0
  6 35  1  0  0  0  0
  7  8  1  0  0  0  0
  7 10  1  0  0  0  0
  7 19  1  0  0  0  0
  8 20  1  0  0  0  0
  8 21  1  0  0  0  0
  9 13  1  0  0  0  0
  9 14  1  0  0  0  0
  9 22  1  0  0  0  0
 10 11  2  0  0  0  0
 10 12  1  0  0  0  0
 11 16  1  0  0  0  0
 11 24  1  0  0  0  0
 12 17  2  0  0  0  0
 12 25  1  0  0  0  0
 13 26  1  0  0  0  0
 13 27  1  0  0  0  0
 13 28  1  0  0  0  0
 14 29  1  0  0  0  0
 14 30  1  0  0  0  0
 14 31  1  0  0  0  0
 15 16  2  0  0  0  0
 15 17  1  0  0  0  0
 16 32  1  0  0  0  0
 17 33  1  0  0  0  0
 18 36  1  0  0  0  0
 18 37  1  0  0  0  0
 18 38  1  0  0  0  0
M  END
$$$$
Sparfloxacin
  MOE2024           3D

 50 53  0  0  1  0  0  0  0  0999 V2000
    3.4340    1.2080    0.8120 F   0  0  0  0  0  0  0  0  0  0  0  0
    3.4000   -2.7140   -1.6580 F   0  0  0  0  0  0  0  0  0  0  0  0
   -1.3900   -1.8340   -0.3950 O   0  0  0  0  0  0  0  0  0  0  0  0
   -3.5610    1.1380    1.0040 O   0  0  0  0  0  0  0  0  0  0  0  0
   -3.6600   -0.1160   -0.6780 O   0  0  0  0  0  0  0  0  0  0  0  0
    0.6040    1.5190    0.4950 N   0  0  0  0  0  0  0  0  0  0  0  0
    4.9160   -0.7840   -0.2820 N   0  0  0  0  0  0  0  0  0  0  0  0
    7.8240   -0.7900   -0.0640 N   0  0  0  0  0  0  0  0  0  0  0  0
    0.7200   -2.7400   -1.8320 N   0  0  0  0  0  0  0  0  0  0  0  0
    1.2430    2.8290    0.7940 C   0  0  0  0  0  0  0  0  0  0  0  0
    1.9300    3.5550   -0.3220 C   0  0  0  0  0  0  0  0  0  0  0  0
    0.6640    4.1020    0.2490 C   0  0  0  0  0  0  0  0  0  0  0  0
    1.3580    0.3900    0.0730 C   0  0  0  0  0  0  0  0  0  0  0  0
    7.0890    0.4610   -0.2870 C   0  0  2  0  0  0  0  0  0  0  0  0
    7.0110   -1.7470    0.6960 C   0  0  1  0  0  0  0  0  0  0  0  0
    5.7470    0.2160   -1.0190 C   0  0  0  0  0  0  0  0  0  0  0  0
    5.6690   -2.0490   -0.0120 C   0  0  0  0  0  0  0  0  0  0  0  0
    3.5100   -0.7500   -0.3960 C   0  0  0  0  0  0  0  0  0  0  0  0
   -0.7580    1.4780    0.5290 C   0  0  0  0  0  0  0  0  0  0  0  0
    0.6480   -0.7100   -0.4620 C   0  0  0  0  0  0  0  0  0  0  0  0
    2.7570    0.2890    0.1500 C   0  0  0  0  0  0  0  0  0  0  0  0
    1.3750   -1.7350   -1.1170 C   0  0  0  0  0  0  0  0  0  0  0  0
   -1.4890    0.3970    0.1250 C   0  0  0  0  0  0  0  0  0  0  0  0
    2.7620   -1.7290   -1.0530 C   0  0  0  0  0  0  0  0  0  0  0  0
   -0.7840   -0.7710   -0.2870 C   0  0  0  0  0  0  0  0  0  0  0  0
    8.0010    1.3870   -1.0860 C   0  0  0  0  0  0  0  0  0  0  0  0
    7.8470   -3.0110    0.8730 C   0  0  0  0  0  0  0  0  0  0  0  0
   -2.9220    0.4210    0.1130 C   0  0  0  0  0  0  0  0  0  0  0  0
    1.6880    2.8540    1.7750 H   0  0  0  0  0  0  0  0  0  0  0  0
    2.8530    4.0650   -0.1100 H   0  0  0  0  0  0  0  0  0  0  0  0
    1.9120    3.1200   -1.3070 H   0  0  0  0  0  0  0  0  0  0  0  0
    0.7250    4.9960    0.8440 H   0  0  0  0  0  0  0  0  0  0  0  0
   -0.2110    4.0820   -0.3770 H   0  0  0  0  0  0  0  0  0  0  0  0
    6.8700    0.9200    0.6630 H   0  0  0  0  0  0  0  0  0  0  0  0
    6.7920   -1.3350    1.6670 H   0  0  0  0  0  0  0  0  0  0  0  0
    5.2110    1.1440   -1.1080 H   0  0  0  0  0  0  0  0  0  0  0  0
    5.9470   -0.1530   -2.0100 H   0  0  0  0  0  0  0  0  0  0  0  0
    5.0730   -2.6980    0.6050 H   0  0  0  0  0  0  0  0  0  0  0  0
    5.8690   -2.5510   -0.9420 H   0  0  0  0  0  0  0  0  0  0  0  0
   -1.2680    2.3600    0.8820 H   0  0  0  0  0  0  0  0  0  0  0  0
    8.6610   -0.5750    0.4850 H   0  0  0  0  0  0  0  0  0  0  0  0
    8.2470    0.9390   -2.0320 H   0  0  0  0  0  0  0  0  0  0  0  0
    8.9050    1.5790   -0.5380 H   0  0  0  0  0  0  0  0  0  0  0  0
    7.5070    2.3250   -1.2650 H   0  0  0  0  0  0  0  0  0  0  0  0
    7.2940   -3.7420    1.4350 H   0  0  0  0  0  0  0  0  0  0  0  0
    8.0960   -3.4290   -0.0860 H   0  0  0  0  0  0  0  0  0  0  0  0
    8.7520   -2.7860    1.4070 H   0  0  0  0  0  0  0  0  0  0  0  0
   -0.2670   -2.9000   -1.5590 H   0  0  0  0  0  0  0  0  0  0  0  0
    1.2350   -3.6100   -2.0030 H   0  0  0  0  0  0  0  0  0  0  0  0
   -4.5130    1.0310    0.8380 H   0  0  0  0  0  0  0  0  0  0  0  0
  1 21  1  0  0  0  0
  2 24  1  0  0  0  0
  3 25  2  0  0  0  0
  4 28  1  0  0  0  0
  4 50  1  0  0  0  0
  5 28  2  0  0  0  0
  6 10  1  0  0  0  0
  6 13  1  0  0  0  0
  6 19  1  0  0  0  0
  7 16  1  0  0  0  0
  7 17  1  0  0  0  0
  7 18  1  0  0  0  0
  8 14  1  0  0  0  0
  8 15  1  0  0  0  0
  8 41  1  0  0  0  0
  9 22  1  0  0  0  0
  9 48  1  0  0  0  0
  9 49  1  0  0  0  0
 10 11  1  0  0  0  0
 10 12  1  0  0  0  0
 10 29  1  0  0  0  0
 11 12  1  0  0  0  0
 11 30  1  0  0  0  0
 11 31  1  0  0  0  0
 12 32  1  0  0  0  0
 12 33  1  0  0  0  0
 13 20  1  0  0  0  0
 13 21  2  0  0  0  0
 14 16  1  0  0  0  0
 14 26  1  0  0  0  0
 14 34  1  0  0  0  0
 15 17  1  0  0  0  0
 15 27  1  0  0  0  0
 15 35  1  0  0  0  0
 16 36  1  0  0  0  0
 16 37  1  0  0  0  0
 17 38  1  0  0  0  0
 17 39  1  0  0  0  0
 18 21  1  0  0  0  0
 18 24  2  0  0  0  0
 19 23  2  0  0  0  0
 19 40  1  0  0  0  0
 20 22  2  0  0  0  0
 20 25  1  0  0  0  0
 22 24  1  0  0  0  0
 23 25  1  0  0  0  0
 23 28  1  0  0  0  0
 26 42  1  0  0  0  0
 26 43  1  0  0  0  0
 26 44  1  0  0  0  0
 27 45  1  0  0  0  0
 27 46  1  0  0  0  0
 27 47  1  0  0  0  0
M  END
$$$$
Terfenadine
  MOE2024           3D

 76 79  0  0  1  0  0  0  0  0999 V2000
   -4.0340    6.1950    1.9860 O   0  0  0  0  0  0  0  0  0  0  0  0
    4.6710    2.3420    1.8310 O   0  0  0  0  0  0  0  0  0  0  0  0
    0.7020    5.5100    0.2210 N   0  0  0  0  0  0  0  0  0  0  0  0
   -2.0340    6.4070    0.7550 C   0  0  0  0  0  0  0  0  0  0  0  0
   -1.3420    6.5830   -0.6180 C   0  0  0  0  0  0  0  0  0  0  0  0
   -1.3230    5.3220    1.6040 C   0  0  0  0  0  0  0  0  0  0  0  0
   -3.5890    6.2860    0.6800 C   0  0  0  0  0  0  0  0  0  0  0  0
    0.1780    6.6820   -0.4900 C   0  0  0  0  0  0  0  0  0  0  0  0
    0.1960    5.4900    1.6020 C   0  0  0  0  0  0  0  0  0  0  0  0
    2.1700    5.5050    0.1780 C   0  0  0  0  0  0  0  0  0  0  0  0
   -4.2350    5.0520   -0.0020 C   0  0  0  0  0  0  0  0  0  0  0  0
   -4.1630    7.5920    0.0830 C   0  0  0  0  0  0  0  0  0  0  0  0
    2.7170    4.1040    0.4660 C   0  0  0  0  0  0  0  0  0  0  0  0
    4.2360    4.0400    0.2260 C   0  0  0  0  0  0  0  0  0  0  0  0
   -5.6280    4.9900   -0.0460 C   0  0  0  0  0  0  0  0  0  0  0  0
   -4.4730    7.6800   -1.2720 C   0  0  0  0  0  0  0  0  0  0  0  0
   -3.5300    3.9970   -0.5770 C   0  0  0  0  0  0  0  0  0  0  0  0
   -4.3630    8.7210    0.8730 C   0  0  0  0  0  0  0  0  0  0  0  0
    4.8290    2.6510    0.4960 C   0  0  1  0  0  0  0  0  0  0  0  0
   -6.2880    3.9220   -0.6270 C   0  0  0  0  0  0  0  0  0  0  0  0
   -4.9740    8.8490   -1.8160 C   0  0  0  0  0  0  0  0  0  0  0  0
   -4.1860    2.9270   -1.1600 C   0  0  0  0  0  0  0  0  0  0  0  0
   -4.8640    9.8920    0.3320 C   0  0  0  0  0  0  0  0  0  0  0  0
    6.3170    2.5800    0.1790 C   0  0  0  0  0  0  0  0  0  0  0  0
   -5.5670    2.8850   -1.1850 C   0  0  0  0  0  0  0  0  0  0  0  0
   -5.1710    9.9570   -1.0140 C   0  0  0  0  0  0  0  0  0  0  0  0
   10.5780    2.3690   -0.7150 C   0  0  0  0  0  0  0  0  0  0  0  0
    9.0620    2.4240   -0.4240 C   0  0  0  0  0  0  0  0  0  0  0  0
    6.7680    1.8030   -0.8760 C   0  0  0  0  0  0  0  0  0  0  0  0
    7.2480    3.2790    0.9300 C   0  0  0  0  0  0  0  0  0  0  0  0
    8.1180    1.7270   -1.1720 C   0  0  0  0  0  0  0  0  0  0  0  0
    8.5960    3.2010    0.6320 C   0  0  0  0  0  0  0  0  0  0  0  0
   11.3180    1.8190    0.5140 C   0  0  0  0  0  0  0  0  0  0  0  0
   11.0930    3.7810   -1.0320 C   0  0  0  0  0  0  0  0  0  0  0  0
   10.9330    1.4680   -1.9100 C   0  0  0  0  0  0  0  0  0  0  0  0
   -1.8510    7.3320    1.2740 H   0  0  0  0  0  0  0  0  0  0  0  0
   -1.5680    5.7740   -1.2840 H   0  0  0  0  0  0  0  0  0  0  0  0
   -1.6930    7.4850   -1.0860 H   0  0  0  0  0  0  0  0  0  0  0  0
   -1.5480    4.3330    1.2630 H   0  0  0  0  0  0  0  0  0  0  0  0
   -1.6640    5.3840    2.6220 H   0  0  0  0  0  0  0  0  0  0  0  0
    0.6040    6.7270   -1.4780 H   0  0  0  0  0  0  0  0  0  0  0  0
    0.4470    7.5820    0.0380 H   0  0  0  0  0  0  0  0  0  0  0  0
    0.6270    4.6670    2.1450 H   0  0  0  0  0  0  0  0  0  0  0  0
    0.4660    6.4030    2.1050 H   0  0  0  0  0  0  0  0  0  0  0  0
    2.4940    5.7900   -0.8100 H   0  0  0  0  0  0  0  0  0  0  0  0
    2.5680    6.2190    0.8800 H   0  0  0  0  0  0  0  0  0  0  0  0
    2.2230    3.3970   -0.1770 H   0  0  0  0  0  0  0  0  0  0  0  0
    2.5150    3.8360    1.4870 H   0  0  0  0  0  0  0  0  0  0  0  0
   -4.8830    5.7200    1.9520 H   0  0  0  0  0  0  0  0  0  0  0  0
    4.4390    4.2940   -0.7990 H   0  0  0  0  0  0  0  0  0  0  0  0
    4.7360    4.7620    0.8460 H   0  0  0  0  0  0  0  0  0  0  0  0
   -6.2190    5.7900    0.3680 H   0  0  0  0  0  0  0  0  0  0  0  0
   -4.3230    6.8320   -1.9200 H   0  0  0  0  0  0  0  0  0  0  0  0
   -2.4590    3.9730   -0.5900 H   0  0  0  0  0  0  0  0  0  0  0  0
   -4.1250    8.6960    1.9230 H   0  0  0  0  0  0  0  0  0  0  0  0
    4.2950    1.9080   -0.0720 H   0  0  0  0  0  0  0  0  0  0  0  0
   -7.3640    3.9000   -0.6480 H   0  0  0  0  0  0  0  0  0  0  0  0
   -5.2100    8.8950   -2.8650 H   0  0  0  0  0  0  0  0  0  0  0  0
   -3.6170    2.1230   -1.5940 H   0  0  0  0  0  0  0  0  0  0  0  0
   -5.0130   10.7530    0.9600 H   0  0  0  0  0  0  0  0  0  0  0  0
   -6.0750    2.0520   -1.6380 H   0  0  0  0  0  0  0  0  0  0  0  0
   -5.5610   10.8670   -1.4360 H   0  0  0  0  0  0  0  0  0  0  0  0
    6.0690    1.2500   -1.4790 H   0  0  0  0  0  0  0  0  0  0  0  0
    6.9220    3.8890    1.7550 H   0  0  0  0  0  0  0  0  0  0  0  0
    5.3310    1.6610    2.0600 H   0  0  0  0  0  0  0  0  0  0  0  0
    8.4070    1.1090   -2.0010 H   0  0  0  0  0  0  0  0  0  0  0  0
    9.2840    3.7590    1.2400 H   0  0  0  0  0  0  0  0  0  0  0  0
   12.3730    1.7390    0.3190 H   0  0  0  0  0  0  0  0  0  0  0  0
   10.9400    0.8440    0.7640 H   0  0  0  0  0  0  0  0  0  0  0  0
   11.1850    2.4610    1.3650 H   0  0  0  0  0  0  0  0  0  0  0  0
   10.5570    4.1870   -1.8700 H   0  0  0  0  0  0  0  0  0  0  0  0
   12.1410    3.7590   -1.2730 H   0  0  0  0  0  0  0  0  0  0  0  0
   10.9580    4.4400   -0.1940 H   0  0  0  0  0  0  0  0  0  0  0  0
   10.4610    1.8270   -2.8070 H   0  0  0  0  0  0  0  0  0  0  0  0
   10.6170    0.4560   -1.7270 H   0  0  0  0  0  0  0  0  0  0  0  0
   11.9960    1.4590   -2.0760 H   0  0  0  0  0  0  0  0  0  0  0  0
  1  7  1  0  0  0  0
  1 49  1  0  0  0  0
  2 19  1  0  0  0  0
  2 65  1  0  0  0  0
  3  8  1  0  0  0  0
  3  9  1  0  0  0  0
  3 10  1  0  0  0  0
  4  5  1  0  0  0  0
  4  6  1  0  0  0  0
  4  7  1  0  0  0  0
  4 36  1  0  0  0  0
  5  8  1  0  0  0  0
  5 37  1  0  0  0  0
  5 38  1  0  0  0  0
  6  9  1  0  0  0  0
  6 39  1  0  0  0  0
  6 40  1  0  0  0  0
  7 11  1  0  0  0  0
  7 12  1  0  0  0  0
  8 41  1  0  0  0  0
  8 42  1  0  0  0  0
  9 43  1  0  0  0  0
  9 44  1  0  0  0  0
 10 13  1  0  0  0  0
 10 45  1  0  0  0  0
 10 46  1  0  0  0  0
 11 15  2  0  0  0  0
 11 17  1  0  0  0  0
 12 16  2  0  0  0  0
 12 18  1  0  0  0  0
 13 14  1  0  0  0  0
 13 47  1  0  0  0  0
 13 48  1  0  0  0  0
 14 19  1  0  0  0  0
 14 50  1  0  0  0  0
 14 51  1  0  0  0  0
 15 20  1  0  0  0  0
 15 52  1  0  0  0  0
 16 21  1  0  0  0  0
 16 53  1  0  0  0  0
 17 22  2  0  0  0  0
 17 54  1  0  0  0  0
 18 23  2  0  0  0  0
 18 55  1  0  0  0  0
 19 24  1  0  0  0  0
 19 56  1  0  0  0  0
 20 25  2  0  0  0  0
 20 57  1  0  0  0  0
 21 26  2  0  0  0  0
 21 58  1  0  0  0  0
 22 25  1  0  0  0  0
 22 59  1  0  0  0  0
 23 26  1  0  0  0  0
 23 60  1  0  0  0  0
 24 29  2  0  0  0  0
 24 30  1  0  0  0  0
 25 61  1  0  0  0  0
 26 62  1  0  0  0  0
 27 28  1  0  0  0  0
 27 33  1  0  0  0  0
 27 34  1  0  0  0  0
 27 35  1  0  0  0  0
 28 31  2  0  0  0  0
 28 32  1  0  0  0  0
 29 31  1  0  0  0  0
 29 63  1  0  0  0  0
 30 32  2  0  0  0  0
 30 64  1  0  0  0  0
 31 66  1  0  0  0  0
 32 67  1  0  0  0  0
 33 68  1  0  0  0  0
 33 69  1  0  0  0  0
 33 70  1  0  0  0  0
 34 71  1  0  0  0  0
 34 72  1  0  0  0  0
 34 73  1  0  0  0  0
 35 74  1  0  0  0  0
 35 75  1  0  0  0  0
 35 76  1  0  0  0  0
M  END
$$$$
Terodiline
  MOE2024           3D

 48 49  0  0  1  0  0  0  0  0999 V2000
    6.1610   -0.8480   -0.7490 N   0  0  0  0  0  0  0  0  0  0  0  0
    5.0380   -0.2510   -0.0420 C   0  0  2  0  0  0  0  0  0  0  0  0
    3.7610   -0.9170   -0.5760 C   0  0  0  0  0  0  0  0  0  0  0  0
    7.1780   -1.5430    0.0160 C   0  0  0  0  0  0  0  0  0  0  0  0
    2.5020   -0.6710    0.2800 C   0  0  0  0  0  0  0  0  0  0  0  0
    5.1110    1.2530   -0.2930 C   0  0  0  0  0  0  0  0  0  0  0  0
    1.4430   -1.7330   -0.0350 C   0  0  0  0  0  0  0  0  0  0  0  0
    1.9260    0.7520    0.2140 C   0  0  0  0  0  0  0  0  0  0  0  0
    8.1910   -2.0450   -1.0080 C   0  0  0  0  0  0  0  0  0  0  0  0
    6.5660   -2.7400    0.7470 C   0  0  0  0  0  0  0  0  0  0  0  0
    7.8710   -0.5840    0.9850 C   0  0  0  0  0  0  0  0  0  0  0  0
    0.4770   -1.5510   -1.0150 C   0  0  0  0  0  0  0  0  0  0  0  0
    1.4270    1.3260    1.3760 C   0  0  0  0  0  0  0  0  0  0  0  0
    1.4510   -2.9260    0.6770 C   0  0  0  0  0  0  0  0  0  0  0  0
    1.8790    1.4900   -0.9630 C   0  0  0  0  0  0  0  0  0  0  0  0
   -0.4610   -2.5350   -1.2760 C   0  0  0  0  0  0  0  0  0  0  0  0
    0.9050    2.6080    1.3680 C   0  0  0  0  0  0  0  0  0  0  0  0
    0.5150   -3.9130    0.4180 C   0  0  0  0  0  0  0  0  0  0  0  0
    1.3580    2.7730   -0.9750 C   0  0  0  0  0  0  0  0  0  0  0  0
   -0.4430   -3.7180   -0.5590 C   0  0  0  0  0  0  0  0  0  0  0  0
    0.8720    3.3340    0.1920 C   0  0  0  0  0  0  0  0  0  0  0  0
    5.1140   -0.4330    1.0150 H   0  0  0  0  0  0  0  0  0  0  0  0
    3.5920   -0.6360   -1.5980 H   0  0  0  0  0  0  0  0  0  0  0  0
    3.9360   -1.9780   -0.5750 H   0  0  0  0  0  0  0  0  0  0  0  0
    2.8010   -0.8340    1.3010 H   0  0  0  0  0  0  0  0  0  0  0  0
    6.6270   -0.1080   -1.2800 H   0  0  0  0  0  0  0  0  0  0  0  0
    6.0740    1.6340   -0.0070 H   0  0  0  0  0  0  0  0  0  0  0  0
    4.3760    1.7660    0.2980 H   0  0  0  0  0  0  0  0  0  0  0  0
    4.9330    1.4740   -1.3300 H   0  0  0  0  0  0  0  0  0  0  0  0
    7.7120   -2.7010   -1.7130 H   0  0  0  0  0  0  0  0  0  0  0  0
    8.9780   -2.5910   -0.5200 H   0  0  0  0  0  0  0  0  0  0  0  0
    8.6320   -1.2220   -1.5410 H   0  0  0  0  0  0  0  0  0  0  0  0
    5.8880   -2.4260    1.5170 H   0  0  0  0  0  0  0  0  0  0  0  0
    6.0410   -3.3680    0.0500 H   0  0  0  0  0  0  0  0  0  0  0  0
    7.3410   -3.3230    1.2100 H   0  0  0  0  0  0  0  0  0  0  0  0
    8.6880   -1.0850    1.4720 H   0  0  0  0  0  0  0  0  0  0  0  0
    8.2650    0.2650    0.4570 H   0  0  0  0  0  0  0  0  0  0  0  0
    7.1970   -0.2440    1.7480 H   0  0  0  0  0  0  0  0  0  0  0  0
    0.4410   -0.6410   -1.5860 H   0  0  0  0  0  0  0  0  0  0  0  0
    1.4370    0.7740    2.2990 H   0  0  0  0  0  0  0  0  0  0  0  0
    2.1920   -3.0980    1.4380 H   0  0  0  0  0  0  0  0  0  0  0  0
    2.2450    1.0760   -1.8850 H   0  0  0  0  0  0  0  0  0  0  0  0
   -1.2050   -2.3780   -2.0370 H   0  0  0  0  0  0  0  0  0  0  0  0
    0.5230    3.0380    2.2760 H   0  0  0  0  0  0  0  0  0  0  0  0
    0.5340   -4.8320    0.9770 H   0  0  0  0  0  0  0  0  0  0  0  0
    1.3310    3.3330   -1.8930 H   0  0  0  0  0  0  0  0  0  0  0  0
   -1.1720   -4.4820   -0.7620 H   0  0  0  0  0  0  0  0  0  0  0  0
    0.4670    4.3310    0.1840 H   0  0  0  0  0  0  0  0  0  0  0  0
  1  2  1  0  0  0  0
  1  4  1  0  0  0  0
  1 26  1  0  0  0  0
  2  3  1  0  0  0  0
  2  6  1  0  0  0  0
  2 22  1  0  0  0  0
  3  5  1  0  0  0  0
  3 23  1  0  0  0  0
  3 24  1  0  0  0  0
  4  9  1  0  0  0  0
  4 10  1  0  0  0  0
  4 11  1  0  0  0  0
  5  7  1  0  0  0  0
  5  8  1  0  0  0  0
  5 25  1  0  0  0  0
  6 27  1  0  0  0  0
  6 28  1  0  0  0  0
  6 29  1  0  0  0  0
  7 12  2  0  0  0  0
  7 14  1  0  0  0  0
  8 13  2  0  0  0  0
  8 15  1  0  0  0  0
  9 30  1  0  0  0  0
  9 31  1  0  0  0  0
  9 32  1  0  0  0  0
 10 33  1  0  0  0  0
 10 34  1  0  0  0  0
 10 35  1  0  0  0  0
 11 36  1  0  0  0  0
 11 37  1  0  0  0  0
 11 38  1  0  0  0  0
 12 16  1  0  0  0  0
 12 39  1  0  0  0  0
 13 17  1  0  0  0  0
 13 40  1  0  0  0  0
 14 18  2  0  0  0  0
 14 41  1  0  0  0  0
 15 19  2  0  0  0  0
 15 42  1  0  0  0  0
 16 20  2  0  0  0  0
 16 43  1  0  0  0  0
 17 21  2  0  0  0  0
 17 44  1  0  0  0  0
 18 20  1  0  0  0  0
 18 45  1  0  0  0  0
 19 21  1  0  0  0  0
 19 46  1  0  0  0  0
 20 47  1  0  0  0  0
 21 48  1  0  0  0  0
M  END
$$$$
Thioridazine
  MOE2024           3D

 51 54  0  0  1  0  0  0  0  0999 V2000
    0.4540    1.6840   -1.1060 S   0  0  0  0  0  0  0  0  0  0  0  0
    1.7700   -3.8390    1.7020 S   0  0  0  0  0  0  0  0  0  0  0  0
    7.9330   -0.0410    0.8420 N   0  0  2  0  0  0  0  0  0  0  0  0
    3.0840    0.9430    0.3280 N   0  0  0  0  0  0  0  0  0  0  0  0
    6.7620   -0.2020   -0.0420 C   0  0  1  0  0  0  0  0  0  0  0  0
    6.6580   -1.6480   -0.5660 C   0  0  0  0  0  0  0  0  0  0  0  0
    5.4810    0.2790    0.6560 C   0  0  0  0  0  0  0  0  0  0  0  0
    7.9490   -2.0750   -1.2780 C   0  0  0  0  0  0  0  0  0  0  0  0
    9.1840   -0.3740    0.1430 C   0  0  0  0  0  0  0  0  0  0  0  0
    9.1710   -1.8140   -0.3890 C   0  0  0  0  0  0  0  0  0  0  0  0
    4.3600    0.5700   -0.3490 C   0  0  0  0  0  0  0  0  0  0  0  0
    7.8420   -0.7040    2.1580 C   0  0  0  0  0  0  0  0  0  0  0  0
    2.0840   -0.0550    0.3170 C   0  0  0  0  0  0  0  0  0  0  0  0
    2.7600    2.3180    0.3030 C   0  0  0  0  0  0  0  0  0  0  0  0
    0.8560    0.1130   -0.3290 C   0  0  0  0  0  0  0  0  0  0  0  0
    1.6310    2.8150   -0.3520 C   0  0  0  0  0  0  0  0  0  0  0  0
    2.3070   -1.2820    0.9350 C   0  0  0  0  0  0  0  0  0  0  0  0
    3.5900    3.2510    0.9180 C   0  0  0  0  0  0  0  0  0  0  0  0
   -0.0940   -0.8900   -0.3960 C   0  0  0  0  0  0  0  0  0  0  0  0
    1.3590    4.1670   -0.4380 C   0  0  0  0  0  0  0  0  0  0  0  0
    1.3600   -2.2890    0.8770 C   0  0  0  0  0  0  0  0  0  0  0  0
    3.3280    4.6100    0.8470 C   0  0  0  0  0  0  0  0  0  0  0  0
    0.1580   -2.1090    0.2110 C   0  0  0  0  0  0  0  0  0  0  0  0
    2.2160    5.0720    0.1640 C   0  0  0  0  0  0  0  0  0  0  0  0
    0.3000   -4.9450    1.5230 C   0  0  0  0  0  0  0  0  0  0  0  0
    6.9250    0.4440   -0.8900 H   0  0  0  0  0  0  0  0  0  0  0  0
    6.4510   -2.3170    0.2490 H   0  0  0  0  0  0  0  0  0  0  0  0
    5.8440   -1.7300   -1.2610 H   0  0  0  0  0  0  0  0  0  0  0  0
    5.7130    1.1820    1.1870 H   0  0  0  0  0  0  0  0  0  0  0  0
    5.1580   -0.4610    1.3600 H   0  0  0  0  0  0  0  0  0  0  0  0
    7.8990   -3.1180   -1.5380 H   0  0  0  0  0  0  0  0  0  0  0  0
    8.0510   -1.5090   -2.1880 H   0  0  0  0  0  0  0  0  0  0  0  0
   10.0200   -0.2330    0.8080 H   0  0  0  0  0  0  0  0  0  0  0  0
    9.3090    0.3080   -0.6810 H   0  0  0  0  0  0  0  0  0  0  0  0
    9.1760   -2.5020    0.4370 H   0  0  0  0  0  0  0  0  0  0  0  0
   10.0690   -1.9870   -0.9560 H   0  0  0  0  0  0  0  0  0  0  0  0
    4.1820   -0.2940   -0.9640 H   0  0  0  0  0  0  0  0  0  0  0  0
    4.6620    1.3730   -1.0010 H   0  0  0  0  0  0  0  0  0  0  0  0
    8.7490   -0.5340    2.7130 H   0  0  0  0  0  0  0  0  0  0  0  0
    7.6960   -1.7630    2.0500 H   0  0  0  0  0  0  0  0  0  0  0  0
    7.0280   -0.2940    2.7280 H   0  0  0  0  0  0  0  0  0  0  0  0
    3.2170   -1.4600    1.4700 H   0  0  0  0  0  0  0  0  0  0  0  0
    4.4500    2.9160    1.4640 H   0  0  0  0  0  0  0  0  0  0  0  0
   -1.0200   -0.7150   -0.9130 H   0  0  0  0  0  0  0  0  0  0  0  0
    0.4840    4.5060   -0.9630 H   0  0  0  0  0  0  0  0  0  0  0  0
    3.9910    5.3080    1.3270 H   0  0  0  0  0  0  0  0  0  0  0  0
   -0.5790   -2.8860    0.1580 H   0  0  0  0  0  0  0  0  0  0  0  0
    2.0160    6.1280    0.1060 H   0  0  0  0  0  0  0  0  0  0  0  0
   -0.5430   -4.4510    1.9710 H   0  0  0  0  0  0  0  0  0  0  0  0
    0.1430   -5.1220    0.4740 H   0  0  0  0  0  0  0  0  0  0  0  0
    0.5210   -5.8630    2.0360 H   0  0  0  0  0  0  0  0  0  0  0  0
  1 15  1  0  0  0  0
  1 16  1  0  0  0  0
  2 21  1  0  0  0  0
  2 25  1  0  0  0  0
  3  5  1  0  0  0  0
  3  9  1  0  0  0  0
  3 12  1  0  0  0  0
  4 11  1  0  0  0  0
  4 13  1  0  0  0  0
  4 14  1  0  0  0  0
  5  6  1  0  0  0  0
  5  7  1  0  0  0  0
  5 26  1  0  0  0  0
  6  8  1  0  0  0  0
  6 27  1  0  0  0  0
  6 28  1  0  0  0  0
  7 11  1  0  0  0  0
  7 29  1  0  0  0  0
  7 30  1  0  0  0  0
  8 10  1  0  0  0  0
  8 31  1  0  0  0  0
  8 32  1  0  0  0  0
  9 10  1  0  0  0  0
  9 33  1  0  0  0  0
  9 34  1  0  0  0  0
 10 35  1  0  0  0  0
 10 36  1  0  0  0  0
 11 37  1  0  0  0  0
 11 38  1  0  0  0  0
 12 39  1  0  0  0  0
 12 40  1  0  0  0  0
 12 41  1  0  0  0  0
 13 15  1  0  0  0  0
 13 17  2  0  0  0  0
 14 16  1  0  0  0  0
 14 18  2  0  0  0  0
 15 19  2  0  0  0  0
 16 20  2  0  0  0  0
 17 21  1  0  0  0  0
 17 42  1  0  0  0  0
 18 22  1  0  0  0  0
 18 43  1  0  0  0  0
 19 23  1  0  0  0  0
 19 44  1  0  0  0  0
 20 24  1  0  0  0  0
 20 45  1  0  0  0  0
 21 23  2  0  0  0  0
 22 24  2  0  0  0  0
 22 46  1  0  0  0  0
 23 47  1  0  0  0  0
 24 48  1  0  0  0  0
 25 49  1  0  0  0  0
 25 50  1  0  0  0  0
 25 51  1  0  0  0  0
M  END
$$$$
Verapamil
  MOE2024           3D

 71 72  0  0  1  0  0  0  0  0999 V2000
   -1.2180   -2.6090   -0.3590 O   0  0  0  0  0  0  0  0  0  0  0  0
   -1.4460   -2.6080    2.5050 O   0  0  0  0  0  0  0  0  0  0  0  0
   11.8010   -6.2090    1.6480 O   0  0  0  0  0  0  0  0  0  0  0  0
   12.2960   -8.0880   -0.2020 O   0  0  0  0  0  0  0  0  0  0  0  0
    5.3070   -4.5840   -0.0190 N   0  0  2  0  0  0  0  0  0  0  0  0
    1.8490   -6.3070   -2.7150 N   0  0  0  0  0  0  0  0  0  0  0  0
    1.1890   -6.8940   -0.2190 C   0  0  2  0  0  0  0  0  0  0  0  0
    0.2300   -8.1380   -0.3060 C   0  0  0  0  0  0  0  0  0  0  0  0
    2.5270   -7.2660    0.4990 C   0  0  0  0  0  0  0  0  0  0  0  0
    3.5170   -6.1240    0.8420 C   0  0  0  0  0  0  0  0  0  0  0  0
    0.4790   -5.7090    0.4930 C   0  0  0  0  0  0  0  0  0  0  0  0
    4.1290   -5.3940   -0.3670 C   0  0  0  0  0  0  0  0  0  0  0  0
   -1.0780   -7.8430   -1.0760 C   0  0  0  0  0  0  0  0  0  0  0  0
   -0.1770   -8.7840    1.0360 C   0  0  0  0  0  0  0  0  0  0  0  0
    1.5590   -6.5430   -1.6380 C   0  0  0  0  0  0  0  0  0  0  0  0
   -0.0990   -4.6600   -0.2230 C   0  0  0  0  0  0  0  0  0  0  0  0
    0.3920   -5.6610    1.8840 C   0  0  0  0  0  0  0  0  0  0  0  0
    6.6300   -5.1830   -0.2670 C   0  0  0  0  0  0  0  0  0  0  0  0
   -0.7230   -3.6030    0.4170 C   0  0  0  0  0  0  0  0  0  0  0  0
    5.2040   -3.7300    1.1700 C   0  0  0  0  0  0  0  0  0  0  0  0
   -0.2430   -4.6160    2.5330 C   0  0  0  0  0  0  0  0  0  0  0  0
    6.9620   -6.3530    0.6650 C   0  0  0  0  0  0  0  0  0  0  0  0
   -0.8160   -3.5880    1.8100 C   0  0  0  0  0  0  0  0  0  0  0  0
    8.3880   -6.8260    0.4280 C   0  0  0  0  0  0  0  0  0  0  0  0
    9.4350   -6.2890    1.1600 C   0  0  0  0  0  0  0  0  0  0  0  0
    8.6500   -7.7930   -0.5270 C   0  0  0  0  0  0  0  0  0  0  0  0
   10.7440   -6.7140    0.9470 C   0  0  0  0  0  0  0  0  0  0  0  0
   -0.5320   -1.3780   -0.2930 C   0  0  0  0  0  0  0  0  0  0  0  0
    9.9460   -8.2260   -0.7500 C   0  0  0  0  0  0  0  0  0  0  0  0
   11.0020   -7.6920   -0.0170 C   0  0  0  0  0  0  0  0  0  0  0  0
   -2.8310   -2.4630    2.2800 C   0  0  0  0  0  0  0  0  0  0  0  0
   11.6340   -5.2170    2.6350 C   0  0  0  0  0  0  0  0  0  0  0  0
   12.6440   -9.0670   -1.1530 C   0  0  0  0  0  0  0  0  0  0  0  0
    0.7510   -8.8990   -0.8630 H   0  0  0  0  0  0  0  0  0  0  0  0
    2.3060   -7.7460    1.4310 H   0  0  0  0  0  0  0  0  0  0  0  0
    3.0480   -7.9990   -0.0950 H   0  0  0  0  0  0  0  0  0  0  0  0
    4.3080   -6.5550    1.4240 H   0  0  0  0  0  0  0  0  0  0  0  0
    3.0280   -5.3980    1.4660 H   0  0  0  0  0  0  0  0  0  0  0  0
    3.3900   -4.7340   -0.7890 H   0  0  0  0  0  0  0  0  0  0  0  0
    4.4030   -6.1030   -1.1300 H   0  0  0  0  0  0  0  0  0  0  0  0
   -0.8850   -7.4870   -2.0730 H   0  0  0  0  0  0  0  0  0  0  0  0
   -1.6680   -8.7390   -1.1670 H   0  0  0  0  0  0  0  0  0  0  0  0
   -1.6700   -7.1060   -0.5600 H   0  0  0  0  0  0  0  0  0  0  0  0
   -0.8010   -9.6420    0.8530 H   0  0  0  0  0  0  0  0  0  0  0  0
   -0.7410   -8.0980    1.6420 H   0  0  0  0  0  0  0  0  0  0  0  0
    0.6730   -9.1320    1.5930 H   0  0  0  0  0  0  0  0  0  0  0  0
   -0.0830   -4.6260   -1.2980 H   0  0  0  0  0  0  0  0  0  0  0  0
    0.8150   -6.4410    2.4900 H   0  0  0  0  0  0  0  0  0  0  0  0
    7.3820   -4.4200   -0.1550 H   0  0  0  0  0  0  0  0  0  0  0  0
    6.6740   -5.5230   -1.2880 H   0  0  0  0  0  0  0  0  0  0  0  0
    6.0050   -3.0110    1.1730 H   0  0  0  0  0  0  0  0  0  0  0  0
    5.2580   -4.3200    2.0680 H   0  0  0  0  0  0  0  0  0  0  0  0
    4.2690   -3.1960    1.1540 H   0  0  0  0  0  0  0  0  0  0  0  0
    6.8520   -6.0490    1.6890 H   0  0  0  0  0  0  0  0  0  0  0  0
    6.2900   -7.1690    0.4740 H   0  0  0  0  0  0  0  0  0  0  0  0
   -0.3020   -4.5960    3.6060 H   0  0  0  0  0  0  0  0  0  0  0  0
    9.2140   -5.5380    1.8930 H   0  0  0  0  0  0  0  0  0  0  0  0
    7.8460   -8.2150   -1.1040 H   0  0  0  0  0  0  0  0  0  0  0  0
   -0.9870   -0.7010   -0.9930 H   0  0  0  0  0  0  0  0  0  0  0  0
   -0.6070   -0.9830    0.7040 H   0  0  0  0  0  0  0  0  0  0  0  0
    0.4990   -1.5420   -0.5540 H   0  0  0  0  0  0  0  0  0  0  0  0
   10.1080   -8.9770   -1.4970 H   0  0  0  0  0  0  0  0  0  0  0  0
   -3.2190   -1.7730    3.0080 H   0  0  0  0  0  0  0  0  0  0  0  0
   -2.9950   -2.0790    1.2900 H   0  0  0  0  0  0  0  0  0  0  0  0
   -3.3040   -3.4220    2.3920 H   0  0  0  0  0  0  0  0  0  0  0  0
   12.6030   -4.9850    3.0390 H   0  0  0  0  0  0  0  0  0  0  0  0
   11.2090   -4.3410    2.1800 H   0  0  0  0  0  0  0  0  0  0  0  0
   10.9970   -5.6010    3.4110 H   0  0  0  0  0  0  0  0  0  0  0  0
   12.1460   -9.9870   -0.9050 H   0  0  0  0  0  0  0  0  0  0  0  0
   12.3580   -8.7210   -2.1300 H   0  0  0  0  0  0  0  0  0  0  0  0
   13.7090   -9.2060   -1.1120 H   0  0  0  0  0  0  0  0  0  0  0  0
  1 19  1  0  0  0  0
  1 28  1  0  0  0  0
  2 23  1  0  0  0  0
  2 31  1  0  0  0  0
  3 27  1  0  0  0  0
  3 32  1  0  0  0  0
  4 30  1  0  0  0  0
  4 33  1  0  0  0  0
  5 12  1  0  0  0  0
  5 18  1  0  0  0  0
  5 20  1  0  0  0  0
  6 15  3  0  0  0  0
  7  8  1  0  0  0  0
  7  9  1  0  0  0  0
  7 11  1  0  0  0  0
  7 15  1  0  0  0  0
  8 13  1  0  0  0  0
  8 14  1  0  0  0  0
  8 34  1  0  0  0  0
  9 10  1  0  0  0  0
  9 35  1  0  0  0  0
  9 36  1  0  0  0  0
 10 12  1  0  0  0  0
 10 37  1  0  0  0  0
 10 38  1  0  0  0  0
 11 16  2  0  0  0  0
 11 17  1  0  0  0  0
 12 39  1  0  0  0  0
 12 40  1  0  0  0  0
 13 41  1  0  0  0  0
 13 42  1  0  0  0  0
 13 43  1  0  0  0  0
 14 44  1  0  0  0  0
 14 45  1  0  0  0  0
 14 46  1  0  0  0  0
 16 19  1  0  0  0  0
 16 47  1  0  0  0  0
 17 21  2  0  0  0  0
 17 48  1  0  0  0  0
 18 22  1  0  0  0  0
 18 49  1  0  0  0  0
 18 50  1  0  0  0  0
 19 23  2  0  0  0  0
 20 51  1  0  0  0  0
 20 52  1  0  0  0  0
 20 53  1  0  0  0  0
 21 23  1  0  0  0  0
 21 56  1  0  0  0  0
 22 24  1  0  0  0  0
 22 54  1  0  0  0  0
 22 55  1  0  0  0  0
 24 25  2  0  0  0  0
 24 26  1  0  0  0  0
 25 27  1  0  0  0  0
 25 57  1  0  0  0  0
 26 29  2  0  0  0  0
 26 58  1  0  0  0  0
 27 30  2  0  0  0  0
 28 59  1  0  0  0  0
 28 60  1  0  0  0  0
 28 61  1  0  0  0  0
 29 30  1  0  0  0  0
 29 62  1  0  0  0  0
 31 63  1  0  0  0  0
 31 64  1  0  0  0  0
 31 65  1  0  0  0  0
 32 66  1  0  0  0  0
 32 67  1  0  0  0  0
 32 68  1  0  0  0  0
 33 69  1  0  0  0  0
 33 70  1  0  0  0  0
 33 71  1  0  0  0  0
M  END
$$$$
ceftriaxone
  MOE2024           3D

 54 57  0  0  1  0  0  0  0  0999 V2000
    0.8380    0.7780    0.1200 S   0  0  0  0  0  0  0  0  0  0  0  0
    5.6870    1.4250   -0.3570 S   0  0  0  0  0  0  0  0  0  0  0  0
   -6.2350   -4.1090    1.8210 S   0  0  0  0  0  0  0  0  0  0  0  0
    0.9360   -3.3430    1.0400 O   0  0  0  0  0  0  0  0  0  0  0  0
    4.4570   -2.4350    1.9560 O   0  0  0  0  0  0  0  0  0  0  0  0
    4.2510   -3.3170    0.0440 O   0  0  0  0  0  0  0  0  0  0  0  0
   -2.8790   -2.5310   -0.7000 O   0  0  0  0  0  0  0  0  0  0  0  0
   -2.7590    0.8720    1.2080 O   0  0  0  0  0  0  0  0  0  0  0  0
    8.9230    1.3710    3.2200 O   0  0  0  0  0  0  0  0  0  0  0  0
   11.0140    2.3810    1.5770 O   0  0  0  0  0  0  0  0  0  0  0  0
    1.8970   -1.6060   -0.2350 N   0  0  0  0  0  0  0  0  0  0  0  0
   -1.3490   -1.2580    0.2320 N   0  0  0  0  0  0  0  0  0  0  0  0
    8.2020    2.3590   -0.5280 N   0  0  0  0  0  0  0  0  0  0  0  0
   -3.7160    0.0500    1.5240 N   0  0  0  0  0  0  0  0  0  0  0  0
    7.5130    1.4050    1.5300 N   0  0  0  0  0  0  0  0  0  0  0  0
    9.5320    2.6350   -0.0340 N   0  0  0  0  0  0  0  0  0  0  0  0
   -6.0730   -1.5680    1.6260 N   0  0  0  0  0  0  0  0  0  0  0  0
   -8.2120   -2.3430    2.2160 N   0  0  0  0  0  0  0  0  0  0  0  0
    0.9010   -0.7150   -0.8930 C   0  0  1  0  0  0  0  0  0  0  0  0
   -0.1950   -1.7670   -0.5780 C   0  0  1  0  0  0  0  0  0  0  0  0
    0.9210   -2.4450    0.2310 C   0  0  0  0  0  0  0  0  0  0  0  0
    3.1340   -1.2480    0.3440 C   0  0  0  0  0  0  0  0  0  0  0  0
    3.4710    0.0630    0.4800 C   0  0  0  0  0  0  0  0  0  0  0  0
    2.5830    1.2580    0.1260 C   0  0  0  0  0  0  0  0  0  0  0  0
    4.8260    0.5250    1.0080 C   0  0  0  0  0  0  0  0  0  0  0  0
    3.9630   -2.3800    0.7460 C   0  0  0  0  0  0  0  0  0  0  0  0
   -2.6510   -1.6740    0.1400 C   0  0  0  0  0  0  0  0  0  0  0  0
   -3.7050   -1.1440    1.0110 C   0  0  0  0  0  0  0  0  0  0  0  0
    7.3050    1.7540    0.3060 C   0  0  0  0  0  0  0  0  0  0  0  0
   -4.7950   -2.0640    1.3310 C   0  0  0  0  0  0  0  0  0  0  0  0
   -4.7000   -3.4140    1.3890 C   0  0  0  0  0  0  0  0  0  0  0  0
    7.8620    2.8920   -1.8750 C   0  0  0  0  0  0  0  0  0  0  0  0
    8.7600    1.6660    2.0450 C   0  0  0  0  0  0  0  0  0  0  0  0
    9.8450    2.2510    1.2340 C   0  0  0  0  0  0  0  0  0  0  0  0
   -6.9060   -2.4960    1.8940 C   0  0  0  0  0  0  0  0  0  0  0  0
   -2.8220    2.1700    1.7400 C   0  0  0  0  0  0  0  0  0  0  0  0
    1.1200   -0.5140   -1.9270 H   0  0  0  0  0  0  0  0  0  0  0  0
   -0.4920   -2.3350   -1.4420 H   0  0  0  0  0  0  0  0  0  0  0  0
    2.8160    1.6460   -0.8500 H   0  0  0  0  0  0  0  0  0  0  0  0
    2.6720    2.0430    0.8570 H   0  0  0  0  0  0  0  0  0  0  0  0
   -1.1550   -0.4340    0.8170 H   0  0  0  0  0  0  0  0  0  0  0  0
    4.7250    1.2050    1.8370 H   0  0  0  0  0  0  0  0  0  0  0  0
    5.4720   -0.2850    1.2920 H   0  0  0  0  0  0  0  0  0  0  0  0
    4.9110   -3.2870    2.0620 H   0  0  0  0  0  0  0  0  0  0  0  0
   -3.8800   -4.0900    1.2180 H   0  0  0  0  0  0  0  0  0  0  0  0
   10.3240    2.6960   -0.6830 H   0  0  0  0  0  0  0  0  0  0  0  0
    8.6890    3.4500   -2.2760 H   0  0  0  0  0  0  0  0  0  0  0  0
    7.0080    3.5440   -1.8040 H   0  0  0  0  0  0  0  0  0  0  0  0
    7.6320    2.0770   -2.5390 H   0  0  0  0  0  0  0  0  0  0  0  0
   -1.9650    2.7200    1.3960 H   0  0  0  0  0  0  0  0  0  0  0  0
   -3.7290    2.6350    1.3990 H   0  0  0  0  0  0  0  0  0  0  0  0
   -2.8190    2.1010    2.8130 H   0  0  0  0  0  0  0  0  0  0  0  0
   -8.6150   -1.4060    2.2290 H   0  0  0  0  0  0  0  0  0  0  0  0
   -8.8350   -3.1350    2.3720 H   0  0  0  0  0  0  0  0  0  0  0  0
  1 19  1  0  0  0  0
  1 24  1  0  0  0  0
  2 25  1  0  0  0  0
  2 29  1  0  0  0  0
  3 31  1  0  0  0  0
  3 35  1  0  0  0  0
  4 21  2  0  0  0  0
  5 26  1  0  0  0  0
  5 44  1  0  0  0  0
  6 26  2  0  0  0  0
  7 27  2  0  0  0  0
  8 14  1  0  0  0  0
  8 36  1  0  0  0  0
  9 33  2  0  0  0  0
 10 34  2  0  0  0  0
 11 19  1  0  0  0  0
 11 21  1  0  0  0  0
 11 22  1  0  0  0  0
 12 20  1  0  0  0  0
 12 27  1  0  0  0  0
 12 41  1  0  0  0  0
 13 16  1  0  0  0  0
 13 29  1  0  0  0  0
 13 32  1  0  0  0  0
 14 28  2  0  0  0  0
 15 29  2  0  0  0  0
 15 33  1  0  0  0  0
 16 34  1  0  0  0  0
 16 46  1  0  0  0  0
 17 30  1  0  0  0  0
 17 35  2  0  0  0  0
 18 35  1  0  0  0  0
 18 53  1  0  0  0  0
 18 54  1  0  0  0  0
 19 20  1  0  0  0  0
 19 37  1  0  0  0  0
 20 21  1  0  0  0  0
 20 38  1  0  0  0  0
 22 23  2  0  0  0  0
 22 26  1  0  0  0  0
 23 24  1  0  0  0  0
 23 25  1  0  0  0  0
 24 39  1  0  0  0  0
 24 40  1  0  0  0  0
 25 42  1  0  0  0  0
 25 43  1  0  0  0  0
 27 28  1  0  0  0  0
 28 30  1  0  0  0  0
 30 31  2  0  0  0  0
 31 45  1  0  0  0  0
 32 47  1  0  0  0  0
 32 48  1  0  0  0  0
 32 49  1  0  0  0  0
 33 34  1  0  0  0  0
 36 50  1  0  0  0  0
 36 51  1  0  0  0  0
 36 52  1  0  0  0  0
M  END
$$$$
cilostazol
  MOE2024           3D

 54 57  0  0  0  0  0  0  0  0999 V2000
    4.0720    0.7700    0.0260 O   0  0  0  0  0  0  0  0  0  0  0  0
   11.2600    3.0690   -0.3270 O   0  0  0  0  0  0  0  0  0  0  0  0
   -3.3140    0.1340    0.5590 N   0  0  0  0  0  0  0  0  0  0  0  0
   -4.2600    1.0150    0.8160 N   0  0  0  0  0  0  0  0  0  0  0  0
   -2.3700    2.0320    0.7470 N   0  0  0  0  0  0  0  0  0  0  0  0
   -3.6790    2.1540    0.9240 N   0  0  0  0  0  0  0  0  0  0  0  0
    9.0720    3.1470    0.1040 N   0  0  0  0  0  0  0  0  0  0  0  0
   -3.5690   -1.3220    0.3720 C   0  0  0  0  0  0  0  0  0  0  0  0
   -3.8080   -2.0170    1.7310 C   0  0  0  0  0  0  0  0  0  0  0  0
   -4.7380   -1.5760   -0.5970 C   0  0  0  0  0  0  0  0  0  0  0  0
   -4.6210   -3.3210    1.6170 C   0  0  0  0  0  0  0  0  0  0  0  0
   -4.9030   -3.0790   -0.9000 C   0  0  0  0  0  0  0  0  0  0  0  0
   -4.4330   -3.9910    0.2500 C   0  0  0  0  0  0  0  0  0  0  0  0
   -2.1610    0.7890    0.5260 C   0  0  0  0  0  0  0  0  0  0  0  0
   -0.8020    0.1470    0.2660 C   0  0  0  0  0  0  0  0  0  0  0  0
    0.3650    1.1380    0.3970 C   0  0  0  0  0  0  0  0  0  0  0  0
    1.7180    0.4590    0.1400 C   0  0  0  0  0  0  0  0  0  0  0  0
    2.8680    1.4570    0.2740 C   0  0  0  0  0  0  0  0  0  0  0  0
    7.6550    1.2210   -0.1840 C   0  0  0  0  0  0  0  0  0  0  0  0
    8.8940    0.3740   -0.4540 C   0  0  0  0  0  0  0  0  0  0  0  0
    7.7960    2.5760    0.1070 C   0  0  0  0  0  0  0  0  0  0  0  0
   10.0140    1.2090   -1.0950 C   0  0  0  0  0  0  0  0  0  0  0  0
    5.2680    1.4140    0.0690 C   0  0  0  0  0  0  0  0  0  0  0  0
    6.3930    0.6520   -0.2020 C   0  0  0  0  0  0  0  0  0  0  0  0
   10.1760    2.5490   -0.4030 C   0  0  0  0  0  0  0  0  0  0  0  0
    6.6710    3.3400    0.3850 C   0  0  0  0  0  0  0  0  0  0  0  0
    5.4110    2.7670    0.3670 C   0  0  0  0  0  0  0  0  0  0  0  0
   -2.6930   -1.7530   -0.0750 H   0  0  0  0  0  0  0  0  0  0  0  0
   -4.3360   -1.3530    2.3970 H   0  0  0  0  0  0  0  0  0  0  0  0
   -2.8520   -2.2350    2.1740 H   0  0  0  0  0  0  0  0  0  0  0  0
   -5.6460   -1.2110   -0.1460 H   0  0  0  0  0  0  0  0  0  0  0  0
   -4.5850   -1.0390   -1.5170 H   0  0  0  0  0  0  0  0  0  0  0  0
   -5.6680   -3.0990    1.7470 H   0  0  0  0  0  0  0  0  0  0  0  0
   -4.3360   -3.9980    2.4040 H   0  0  0  0  0  0  0  0  0  0  0  0
   -4.3500   -3.3330   -1.7880 H   0  0  0  0  0  0  0  0  0  0  0  0
   -5.9430   -3.2710   -1.1060 H   0  0  0  0  0  0  0  0  0  0  0  0
   -3.3910   -4.2270    0.1180 H   0  0  0  0  0  0  0  0  0  0  0  0
   -4.9800   -4.9180    0.2170 H   0  0  0  0  0  0  0  0  0  0  0  0
   -0.8000   -0.2680   -0.7260 H   0  0  0  0  0  0  0  0  0  0  0  0
   -0.6580   -0.6560    0.9680 H   0  0  0  0  0  0  0  0  0  0  0  0
    0.2250    1.9410   -0.3070 H   0  0  0  0  0  0  0  0  0  0  0  0
    0.3560    1.5620    1.3880 H   0  0  0  0  0  0  0  0  0  0  0  0
    1.8640   -0.3370    0.8500 H   0  0  0  0  0  0  0  0  0  0  0  0
    1.7310    0.0460   -0.8540 H   0  0  0  0  0  0  0  0  0  0  0  0
    2.7730    2.2480   -0.4490 H   0  0  0  0  0  0  0  0  0  0  0  0
    2.9070    1.8630    1.2710 H   0  0  0  0  0  0  0  0  0  0  0  0
    8.6510   -0.4560   -1.0940 H   0  0  0  0  0  0  0  0  0  0  0  0
    9.2430   -0.0200    0.4850 H   0  0  0  0  0  0  0  0  0  0  0  0
    9.7730    1.4000   -2.1240 H   0  0  0  0  0  0  0  0  0  0  0  0
   10.9440    0.6720   -1.0590 H   0  0  0  0  0  0  0  0  0  0  0  0
    6.2650   -0.3920   -0.4230 H   0  0  0  0  0  0  0  0  0  0  0  0
    9.2170    4.0690    0.5110 H   0  0  0  0  0  0  0  0  0  0  0  0
    6.7800    4.3840    0.6120 H   0  0  0  0  0  0  0  0  0  0  0  0
    4.5620    3.3850    0.5850 H   0  0  0  0  0  0  0  0  0  0  0  0
  1 18  1  0  0  0  0
  1 23  1  0  0  0  0
  2 25  2  0  0  0  0
  3  4  1  0  0  0  0
  3  8  1  0  0  0  0
  3 14  1  0  0  0  0
  4  6  2  0  0  0  0
  5  6  1  0  0  0  0
  5 14  2  0  0  0  0
  7 21  1  0  0  0  0
  7 25  1  0  0  0  0
  7 52  1  0  0  0  0
  8  9  1  0  0  0  0
  8 10  1  0  0  0  0
  8 28  1  0  0  0  0
  9 11  1  0  0  0  0
  9 29  1  0  0  0  0
  9 30  1  0  0  0  0
 10 12  1  0  0  0  0
 10 31  1  0  0  0  0
 10 32  1  0  0  0  0
 11 13  1  0  0  0  0
 11 33  1  0  0  0  0
 11 34  1  0  0  0  0
 12 13  1  0  0  0  0
 12 35  1  0  0  0  0
 12 36  1  0  0  0  0
 13 37  1  0  0  0  0
 13 38  1  0  0  0  0
 14 15  1  0  0  0  0
 15 16  1  0  0  0  0
 15 39  1  0  0  0  0
 15 40  1  0  0  0  0
 16 17  1  0  0  0  0
 16 41  1  0  0  0  0
 16 42  1  0  0  0  0
 17 18  1  0  0  0  0
 17 43  1  0  0  0  0
 17 44  1  0  0  0  0
 18 45  1  0  0  0  0
 18 46  1  0  0  0  0
 19 20  1  0  0  0  0
 19 21  1  0  0  0  0
 19 24  2  0  0  0  0
 20 22  1  0  0  0  0
 20 47  1  0  0  0  0
 20 48  1  0  0  0  0
 21 26  2  0  0  0  0
 22 25  1  0  0  0  0
 22 49  1  0  0  0  0
 22 50  1  0  0  0  0
 23 24  1  0  0  0  0
 23 27  2  0  0  0  0
 24 51  1  0  0  0  0
 26 27  1  0  0  0  0
 26 53  1  0  0  0  0
 27 54  1  0  0  0  0
M  END
$$$$
Clozapine
  MOE2024           3D

 42 45  0  0  0  0  0  0  0  0999 V2000
   -0.5550   -0.2150   -0.7300 C   0  0  0  0  0  0  0  0  0  0  0  0
   -0.2420    1.2030   -0.5720 C   0  0  0  0  0  0  0  0  0  0  0  0
    0.6100    1.6940    0.4290 C   0  0  0  0  0  0  0  0  0  0  0  0
    1.3410    0.8370    1.2440 N   0  0  0  0  0  0  0  0  0  0  0  0
    0.2600   -1.2050   -0.6380 N   0  0  0  0  0  0  0  0  0  0  0  0
    2.1090   -0.1970    0.6930 C   0  0  0  0  0  0  0  0  0  0  0  0
    1.5890   -1.1200   -0.2390 C   0  0  0  0  0  0  0  0  0  0  0  0
    0.7720    3.0630    0.6020 C   0  0  0  0  0  0  0  0  0  0  0  0
    0.1380    3.9660   -0.2310 C   0  0  0  0  0  0  0  0  0  0  0  0
   -0.6660    3.5000   -1.2520 C   0  0  0  0  0  0  0  0  0  0  0  0
   -0.8450    2.1380   -1.4150 C   0  0  0  0  0  0  0  0  0  0  0  0
    2.4360   -2.0840   -0.7610 C   0  0  0  0  0  0  0  0  0  0  0  0
    3.7590   -2.1440   -0.3710 C   0  0  0  0  0  0  0  0  0  0  0  0
    4.2740   -1.2560    0.5490 C   0  0  0  0  0  0  0  0  0  0  0  0
    3.4410   -0.2850    1.0790 C   0  0  0  0  0  0  0  0  0  0  0  0
   -1.8770   -0.5280   -1.0210 N   0  0  0  0  0  0  0  0  0  0  0  0
   -2.9700    0.0100   -0.1550 C   0  0  0  0  0  0  0  0  0  0  0  0
   -3.4140   -1.0360    0.8860 C   0  0  0  0  0  0  0  0  0  0  0  0
   -3.8260   -2.3100    0.2580 N   0  0  0  0  0  0  0  0  0  0  0  0
   -2.7090   -2.8430   -0.5550 C   0  0  0  0  0  0  0  0  0  0  0  0
   -2.2520   -1.8420   -1.6330 C   0  0  0  0  0  0  0  0  0  0  0  0
    4.8000   -3.3730   -1.0500 Cl  0  0  0  0  0  0  0  0  0  0  0  0
   -4.2320   -3.2820    1.2760 C   0  0  0  0  0  0  0  0  0  0  0  0
    1.7070    1.2440    2.1050 H   0  0  0  0  0  0  0  0  0  0  0  0
    1.4110    3.4290    1.3840 H   0  0  0  0  0  0  0  0  0  0  0  0
    0.2770    5.0240   -0.0910 H   0  0  0  0  0  0  0  0  0  0  0  0
   -1.1530    4.1920   -1.9170 H   0  0  0  0  0  0  0  0  0  0  0  0
   -1.4770    1.7830   -2.2110 H   0  0  0  0  0  0  0  0  0  0  0  0
    2.0540   -2.7940   -1.4690 H   0  0  0  0  0  0  0  0  0  0  0  0
    5.3060   -1.3240    0.8430 H   0  0  0  0  0  0  0  0  0  0  0  0
    3.8380    0.4150    1.7920 H   0  0  0  0  0  0  0  0  0  0  0  0
   -3.8110    0.2750   -0.7710 H   0  0  0  0  0  0  0  0  0  0  0  0
   -2.6430    0.8950    0.3600 H   0  0  0  0  0  0  0  0  0  0  0  0
   -4.2380   -0.6360    1.4500 H   0  0  0  0  0  0  0  0  0  0  0  0
   -2.5960   -1.2120    1.5640 H   0  0  0  0  0  0  0  0  0  0  0  0
   -3.0210   -3.7520   -1.0380 H   0  0  0  0  0  0  0  0  0  0  0  0
   -1.8670   -3.0690    0.0770 H   0  0  0  0  0  0  0  0  0  0  0  0
   -1.4190   -2.2510   -2.1780 H   0  0  0  0  0  0  0  0  0  0  0  0
   -3.0550   -1.6870   -2.3320 H   0  0  0  0  0  0  0  0  0  0  0  0
   -3.4110   -3.4990    1.9390 H   0  0  0  0  0  0  0  0  0  0  0  0
   -5.0550   -2.8910    1.8480 H   0  0  0  0  0  0  0  0  0  0  0  0
   -4.5510   -4.1950    0.8020 H   0  0  0  0  0  0  0  0  0  0  0  0
  1  2  1  0  0  0  0
  1  5  2  0  0  0  0
  1 16  1  0  0  0  0
  2  3  1  0  0  0  0
  2 11  2  0  0  0  0
  3  4  1  0  0  0  0
  3  8  2  0  0  0  0
  4  6  1  0  0  0  0
  4 24  1  0  0  0  0
  5  7  1  0  0  0  0
  6  7  1  0  0  0  0
  6 15  2  0  0  0  0
  7 12  2  0  0  0  0
  8  9  1  0  0  0  0
  8 25  1  0  0  0  0
  9 10  2  0  0  0  0
  9 26  1  0  0  0  0
 10 11  1  0  0  0  0
 10 27  1  0  0  0  0
 11 28  1  0  0  0  0
 12 13  1  0  0  0  0
 12 29  1  0  0  0  0
 13 14  2  0  0  0  0
 13 22  1  0  0  0  0
 14 15  1  0  0  0  0
 14 30  1  0  0  0  0
 15 31  1  0  0  0  0
 16 17  1  0  0  0  0
 16 21  1  0  0  0  0
 17 18  1  0  0  0  0
 17 32  1  0  0  0  0
 17 33  1  0  0  0  0
 18 19  1  0  0  0  0
 18 34  1  0  0  0  0
 18 35  1  0  0  0  0
 19 20  1  0  0  0  0
 19 23  1  0  0  0  0
 20 21  1  0  0  0  0
 20 36  1  0  0  0  0
 20 37  1  0  0  0  0
 21 38  1  0  0  0  0
 21 39  1  0  0  0  0
 23 40  1  0  0  0  0
 23 41  1  0  0  0  0
 23 42  1  0  0  0  0
M  END
$$$$
diazepam
  MOE2024           3D

 33 35  0  0  0  0  0  0  0  0999 V2000
    4.3070    1.6930    2.8320 Cl  0  0  0  0  0  0  0  0  0  0  0  0
    0.3110   -4.0780   -0.9350 O   0  0  0  0  0  0  0  0  0  0  0  0
    1.3240   -2.0690   -0.6410 N   0  0  0  0  0  0  0  0  0  0  0  0
    3.4190   -3.9710    0.4690 N   0  0  0  0  0  0  0  0  0  0  0  0
    3.3440   -1.5600    0.6850 C   0  0  0  0  0  0  0  0  0  0  0  0
    2.0790   -1.2020    0.1730 C   0  0  0  0  0  0  0  0  0  0  0  0
    3.9940   -2.8310    0.3970 C   0  0  0  0  0  0  0  0  0  0  0  0
    1.9730   -4.0540    0.7460 C   0  0  0  0  0  0  0  0  0  0  0  0
    1.1320   -3.4050   -0.3530 C   0  0  0  0  0  0  0  0  0  0  0  0
    5.4000   -2.7710    0.0290 C   0  0  0  0  0  0  0  0  0  0  0  0
    4.0030   -0.6460    1.5090 C   0  0  0  0  0  0  0  0  0  0  0  0
    1.5360    0.0430    0.4960 C   0  0  0  0  0  0  0  0  0  0  0  0
    0.6680   -1.5170   -1.8590 C   0  0  0  0  0  0  0  0  0  0  0  0
    3.4440    0.5770    1.8050 C   0  0  0  0  0  0  0  0  0  0  0  0
    2.2100    0.9360    1.3040 C   0  0  0  0  0  0  0  0  0  0  0  0
    6.3160   -3.6910    0.5380 C   0  0  0  0  0  0  0  0  0  0  0  0
    5.8900   -1.7940   -0.8410 C   0  0  0  0  0  0  0  0  0  0  0  0
    7.6590   -3.6320    0.2130 C   0  0  0  0  0  0  0  0  0  0  0  0
    7.2320   -1.7280   -1.1700 C   0  0  0  0  0  0  0  0  0  0  0  0
    8.1200   -2.6470   -0.6400 C   0  0  0  0  0  0  0  0  0  0  0  0
    1.7520   -3.5910    1.6900 H   0  0  0  0  0  0  0  0  0  0  0  0
    1.7010   -5.0920    0.8150 H   0  0  0  0  0  0  0  0  0  0  0  0
    4.9640   -0.8890    1.9280 H   0  0  0  0  0  0  0  0  0  0  0  0
    0.5650    0.3150    0.1190 H   0  0  0  0  0  0  0  0  0  0  0  0
    0.7050   -2.2420   -2.6540 H   0  0  0  0  0  0  0  0  0  0  0  0
   -0.3620   -1.2910   -1.6440 H   0  0  0  0  0  0  0  0  0  0  0  0
    1.1730   -0.6250   -2.1860 H   0  0  0  0  0  0  0  0  0  0  0  0
    1.7900    1.8960    1.5500 H   0  0  0  0  0  0  0  0  0  0  0  0
    5.9610   -4.4650    1.1980 H   0  0  0  0  0  0  0  0  0  0  0  0
    5.2110   -1.0790   -1.2700 H   0  0  0  0  0  0  0  0  0  0  0  0
    8.3440   -4.3540    0.6230 H   0  0  0  0  0  0  0  0  0  0  0  0
    7.5870   -0.9640   -1.8400 H   0  0  0  0  0  0  0  0  0  0  0  0
    9.1650   -2.5980   -0.8950 H   0  0  0  0  0  0  0  0  0  0  0  0
  1 14  1  0  0  0  0
  2  9  2  0  0  0  0
  3  6  1  0  0  0  0
  3  9  1  0  0  0  0
  3 13  1  0  0  0  0
  4  7  2  0  0  0  0
  4  8  1  0  0  0  0
  5  6  2  0  0  0  0
  5  7  1  0  0  0  0
  5 11  1  0  0  0  0
  6 12  1  0  0  0  0
  7 10  1  0  0  0  0
  8  9  1  0  0  0  0
  8 21  1  0  0  0  0
  8 22  1  0  0  0  0
 10 16  2  0  0  0  0
 10 17  1  0  0  0  0
 11 14  2  0  0  0  0
 11 23  1  0  0  0  0
 12 15  2  0  0  0  0
 12 24  1  0  0  0  0
 13 25  1  0  0  0  0
 13 26  1  0  0  0  0
 13 27  1  0  0  0  0
 14 15  1  0  0  0  0
 15 28  1  0  0  0  0
 16 18  1  0  0  0  0
 16 29  1  0  0  0  0
 17 19  2  0  0  0  0
 17 30  1  0  0  0  0
 18 20  2  0  0  0  0
 18 31  1  0  0  0  0
 19 20  1  0  0  0  0
 19 32  1  0  0  0  0
 20 33  1  0  0  0  0
M  END
$$$$
Lamivudine
  MOE2024           3D

 26 27  0  0  1  0  0  0  0  0999 V2000
    1.4600    2.9770   -0.2950 S   0  0  0  0  0  0  0  0  0  0  0  0
   -0.3980    1.3880    0.5200 O   0  0  0  0  0  0  0  0  0  0  0  0
    0.5710    0.4470   -1.9800 O   0  0  0  0  0  0  0  0  0  0  0  0
   -2.9450    4.3510    1.1060 O   0  0  0  0  0  0  0  0  0  0  0  0
   -2.3920    2.4770   -0.0140 N   0  0  0  0  0  0  0  0  0  0  0  0
   -4.6310    3.3260    0.0840 N   0  0  0  0  0  0  0  0  0  0  0  0
   -6.2900    2.2970   -1.0010 N   0  0  0  0  0  0  0  0  0  0  0  0
   -0.9870    2.6550    0.4070 C   0  0  2  0  0  0  0  0  0  0  0  0
   -0.2130    3.5040   -0.5960 C   0  0  0  0  0  0  0  0  0  0  0  0
    0.9820    1.3350    0.2750 C   0  0  1  0  0  0  0  0  0  0  0  0
    1.3170    0.2830   -0.8050 C   0  0  0  0  0  0  0  0  0  0  0  0
   -2.7790    1.4600   -0.8540 C   0  0  0  0  0  0  0  0  0  0  0  0
   -3.3170    3.4090    0.4190 C   0  0  0  0  0  0  0  0  0  0  0  0
   -4.0820    1.3880   -1.1970 C   0  0  0  0  0  0  0  0  0  0  0  0
   -4.9820    2.3550   -0.6860 C   0  0  0  0  0  0  0  0  0  0  0  0
   -0.9390    3.1120    1.3810 H   0  0  0  0  0  0  0  0  0  0  0  0
   -0.4600    3.2530   -1.6110 H   0  0  0  0  0  0  0  0  0  0  0  0
   -0.2970    4.5580   -0.4060 H   0  0  0  0  0  0  0  0  0  0  0  0
    1.5030    1.1470    1.1970 H   0  0  0  0  0  0  0  0  0  0  0  0
    2.3600    0.3540   -1.0580 H   0  0  0  0  0  0  0  0  0  0  0  0
    1.1190   -0.7010   -0.4180 H   0  0  0  0  0  0  0  0  0  0  0  0
   -2.0330    0.7630   -1.2050 H   0  0  0  0  0  0  0  0  0  0  0  0
   -4.4620    0.6240   -1.8450 H   0  0  0  0  0  0  0  0  0  0  0  0
    0.8780   -0.1680   -2.6740 H   0  0  0  0  0  0  0  0  0  0  0  0
   -6.9110    3.0040   -0.6060 H   0  0  0  0  0  0  0  0  0  0  0  0
   -6.7170    1.5740   -1.5770 H   0  0  0  0  0  0  0  0  0  0  0  0
  1  9  1  0  0  0  0
  1 10  1  0  0  0  0
  2  8  1  0  0  0  0
  2 10  1  0  0  0  0
  3 11  1  0  0  0  0
  3 24  1  0  0  0  0
  4 13  2  0  0  0  0
  5  8  1  0  0  0  0
  5 12  1  0  0  0  0
  5 13  1  0  0  0  0
  6 13  1  0  0  0  0
  6 15  2  0  0  0  0
  7 15  1  0  0  0  0
  7 25  1  0  0  0  0
  7 26  1  0  0  0  0
  8  9  1  0  0  0  0
  8 16  1  0  0  0  0
  9 17  1  0  0  0  0
  9 18  1  0  0  0  0
 10 11  1  0  0  0  0
 10 19  1  0  0  0  0
 11 20  1  0  0  0  0
 11 21  1  0  0  0  0
 12 14  2  0  0  0  0
 12 22  1  0  0  0  0
 14 15  1  0  0  0  0
 14 23  1  0  0  0  0
M  END
$$$$
Linezolid
  MOE2024           3D

 44 46  0  0  1  0  0  0  0  0999 V2000
    0.7560    0.0700    1.3400 F   0  0  0  0  0  0  0  0  0  0  0  0
    6.8870    2.2830   -0.9940 O   0  0  0  0  0  0  0  0  0  0  0  0
   -3.5720    1.4900    0.5940 O   0  0  0  0  0  0  0  0  0  0  0  0
    5.3950    3.8970   -0.8270 O   0  0  0  0  0  0  0  0  0  0  0  0
   11.4250    1.2970    0.1300 O   0  0  0  0  0  0  0  0  0  0  0  0
    4.7770    1.6910   -0.5570 N   0  0  0  0  0  0  0  0  0  0  0  0
   -0.8460    1.9270   -0.1420 N   0  0  0  0  0  0  0  0  0  0  0  0
    9.2150    1.1620    0.1560 N   0  0  0  0  0  0  0  0  0  0  0  0
    6.9670    0.8790   -0.8570 C   0  0  2  0  0  0  0  0  0  0  0  0
    5.5150    0.4260   -0.6500 C   0  0  0  0  0  0  0  0  0  0  0  0
   -1.3980    2.4170    1.1550 C   0  0  0  0  0  0  0  0  0  0  0  0
   -1.6130    0.7430   -0.6310 C   0  0  0  0  0  0  0  0  0  0  0  0
    3.3730    1.7370   -0.4300 C   0  0  0  0  0  0  0  0  0  0  0  0
    7.8790    0.5430    0.3330 C   0  0  0  0  0  0  0  0  0  0  0  0
    0.5530    1.8250   -0.2050 C   0  0  0  0  0  0  0  0  0  0  0  0
   -2.9170    2.6450    1.0470 C   0  0  0  0  0  0  0  0  0  0  0  0
   -3.1230    1.0480   -0.6590 C   0  0  0  0  0  0  0  0  0  0  0  0
    5.6500    2.7140   -0.7940 C   0  0  0  0  0  0  0  0  0  0  0  0
    2.7080    0.8630    0.4230 C   0  0  0  0  0  0  0  0  0  0  0  0
    2.6140    2.6510   -1.1570 C   0  0  0  0  0  0  0  0  0  0  0  0
    1.3330    0.9180    0.5210 C   0  0  0  0  0  0  0  0  0  0  0  0
    1.2340    2.6930   -1.0460 C   0  0  0  0  0  0  0  0  0  0  0  0
   10.4440    0.6450    0.3710 C   0  0  0  0  0  0  0  0  0  0  0  0
   10.6090   -0.7530    0.9130 C   0  0  0  0  0  0  0  0  0  0  0  0
    7.3700    0.4690   -1.7670 H   0  0  0  0  0  0  0  0  0  0  0  0
    5.4030   -0.1540    0.2490 H   0  0  0  0  0  0  0  0  0  0  0  0
    5.1680   -0.1430   -1.4950 H   0  0  0  0  0  0  0  0  0  0  0  0
   -0.9140    3.3400    1.4220 H   0  0  0  0  0  0  0  0  0  0  0  0
   -1.2040    1.6970    1.9320 H   0  0  0  0  0  0  0  0  0  0  0  0
   -1.4370   -0.1010    0.0130 H   0  0  0  0  0  0  0  0  0  0  0  0
   -1.2800    0.4880   -1.6210 H   0  0  0  0  0  0  0  0  0  0  0  0
    7.9750   -0.5250    0.4200 H   0  0  0  0  0  0  0  0  0  0  0  0
    7.4380    0.9170    1.2410 H   0  0  0  0  0  0  0  0  0  0  0  0
   -3.1250    3.4480    0.3630 H   0  0  0  0  0  0  0  0  0  0  0  0
   -3.3230    2.8960    2.0110 H   0  0  0  0  0  0  0  0  0  0  0  0
   -3.3340    1.8110   -1.3880 H   0  0  0  0  0  0  0  0  0  0  0  0
   -3.6750    0.1620   -0.9120 H   0  0  0  0  0  0  0  0  0  0  0  0
    3.2450    0.1500    1.0160 H   0  0  0  0  0  0  0  0  0  0  0  0
    3.1040    3.3420   -1.8190 H   0  0  0  0  0  0  0  0  0  0  0  0
    0.6660    3.4060   -1.6150 H   0  0  0  0  0  0  0  0  0  0  0  0
    9.1990    2.1290   -0.1910 H   0  0  0  0  0  0  0  0  0  0  0  0
   10.2540   -1.4660    0.1950 H   0  0  0  0  0  0  0  0  0  0  0  0
   10.0660   -0.8560    1.8330 H   0  0  0  0  0  0  0  0  0  0  0  0
   11.6500   -0.9440    1.1040 H   0  0  0  0  0  0  0  0  0  0  0  0
  1 21  1  0  0  0  0
  2  9  1  0  0  0  0
  2 18  1  0  0  0  0
  3 16  1  0  0  0  0
  3 17  1  0  0  0  0
  4 18  2  0  0  0  0
  5 23  2  0  0  0  0
  6 10  1  0  0  0  0
  6 13  1  0  0  0  0
  6 18  1  0  0  0  0
  7 11  1  0  0  0  0
  7 12  1  0  0  0  0
  7 15  1  0  0  0  0
  8 14  1  0  0  0  0
  8 23  1  0  0  0  0
  8 41  1  0  0  0  0
  9 10  1  0  0  0  0
  9 14  1  0  0  0  0
  9 25  1  0  0  0  0
 10 26  1  0  0  0  0
 10 27  1  0  0  0  0
 11 16  1  0  0  0  0
 11 28  1  0  0  0  0
 11 29  1  0  0  0  0
 12 17  1  0  0  0  0
 12 30  1  0  0  0  0
 12 31  1  0  0  0  0
 13 19  1  0  0  0  0
 13 20  2  0  0  0  0
 14 32  1  0  0  0  0
 14 33  1  0  0  0  0
 15 21  1  0  0  0  0
 15 22  2  0  0  0  0
 16 34  1  0  0  0  0
 16 35  1  0  0  0  0
 17 36  1  0  0  0  0
 17 37  1  0  0  0  0
 19 21  2  0  0  0  0
 19 38  1  0  0  0  0
 20 22  1  0  0  0  0
 20 39  1  0  0  0  0
 22 40  1  0  0  0  0
 23 24  1  0  0  0  0
 24 42  1  0  0  0  0
 24 43  1  0  0  0  0
 24 44  1  0  0  0  0
M  END
$$$$
Mitoxantrone
  MOE2024           3D

 60 62  0  0  0  0  0  0  0  0999 V2000
    0.6040    3.0520    0.7260 O   0  0  0  0  0  0  0  0  0  0  0  0
    5.4810    3.0720    0.7450 O   0  0  0  0  0  0  0  0  0  0  0  0
    0.3190    5.8410    0.3590 O   0  0  0  0  0  0  0  0  0  0  0  0
    5.7470    5.8640    0.3800 O   0  0  0  0  0  0  0  0  0  0  0  0
   -5.2090   -1.9960    2.1680 O   0  0  0  0  0  0  0  0  0  0  0  0
   11.2520   -1.9410    2.3360 O   0  0  0  0  0  0  0  0  0  0  0  0
    0.2680    1.2440   -1.3390 N   0  0  0  0  0  0  0  0  0  0  0  0
    5.8480    1.2640   -1.3140 N   0  0  0  0  0  0  0  0  0  0  0  0
   -2.4120   -1.0380    0.0130 N   0  0  0  0  0  0  0  0  0  0  0  0
    8.5120   -0.9990    0.1020 N   0  0  0  0  0  0  0  0  0  0  0  0
    2.3480    2.2520   -0.5760 C   0  0  0  0  0  0  0  0  0  0  0  0
    3.7550    2.2570   -0.5700 C   0  0  0  0  0  0  0  0  0  0  0  0
    1.6580    1.2720   -1.3080 C   0  0  0  0  0  0  0  0  0  0  0  0
    4.4580    1.2820   -1.2960 C   0  0  0  0  0  0  0  0  0  0  0  0
    2.3350    4.5550    0.3140 C   0  0  0  0  0  0  0  0  0  0  0  0
    3.7410    4.5610    0.3190 C   0  0  0  0  0  0  0  0  0  0  0  0
    1.6720    3.2770    0.1790 C   0  0  0  0  0  0  0  0  0  0  0  0
    4.4160    3.2880    0.1900 C   0  0  0  0  0  0  0  0  0  0  0  0
    2.3770    0.3310   -2.0360 C   0  0  0  0  0  0  0  0  0  0  0  0
    3.7510    0.3360   -2.0300 C   0  0  0  0  0  0  0  0  0  0  0  0
   -0.4580   -0.0330   -1.1180 C   0  0  0  0  0  0  0  0  0  0  0  0
    6.5810   -0.0080   -1.0800 C   0  0  0  0  0  0  0  0  0  0  0  0
    1.6570    5.7790    0.4210 C   0  0  0  0  0  0  0  0  0  0  0  0
    4.4080    5.7910    0.4320 C   0  0  0  0  0  0  0  0  0  0  0  0
   -1.6130    0.1860   -0.1360 C   0  0  0  0  0  0  0  0  0  0  0  0
    7.7040    0.2170   -0.0620 C   0  0  0  0  0  0  0  0  0  0  0  0
    2.3390    6.9750    0.5690 C   0  0  0  0  0  0  0  0  0  0  0  0
    3.7160    6.9800    0.5740 C   0  0  0  0  0  0  0  0  0  0  0  0
   -3.4480   -0.8730    1.0380 C   0  0  0  0  0  0  0  0  0  0  0  0
    9.5150   -0.8300    1.1580 C   0  0  0  0  0  0  0  0  0  0  0  0
   -4.1830   -2.1960    1.2540 C   0  0  0  0  0  0  0  0  0  0  0  0
   10.2570   -2.1460    1.3900 C   0  0  0  0  0  0  0  0  0  0  0  0
    1.8460   -0.4000   -2.6180 H   0  0  0  0  0  0  0  0  0  0  0  0
    4.2930   -0.3910   -2.6070 H   0  0  0  0  0  0  0  0  0  0  0  0
   -0.1240    1.9780   -0.7170 H   0  0  0  0  0  0  0  0  0  0  0  0
    6.2300    2.0030   -0.6930 H   0  0  0  0  0  0  0  0  0  0  0  0
   -0.8420   -0.3810   -2.0600 H   0  0  0  0  0  0  0  0  0  0  0  0
    0.2120   -0.7730   -0.7130 H   0  0  0  0  0  0  0  0  0  0  0  0
    6.9970   -0.3440   -2.0130 H   0  0  0  0  0  0  0  0  0  0  0  0
    5.9080   -0.7580   -0.7010 H   0  0  0  0  0  0  0  0  0  0  0  0
   -1.2030    0.4670    0.8210 H   0  0  0  0  0  0  0  0  0  0  0  0
   -2.2420    0.9840   -0.4940 H   0  0  0  0  0  0  0  0  0  0  0  0
    7.2620    0.4860    0.8830 H   0  0  0  0  0  0  0  0  0  0  0  0
    8.3340    1.0240   -0.3960 H   0  0  0  0  0  0  0  0  0  0  0  0
    1.8020    7.9020    0.6690 H   0  0  0  0  0  0  0  0  0  0  0  0
    4.2440    7.9120    0.6780 H   0  0  0  0  0  0  0  0  0  0  0  0
   -2.8750   -1.2360   -0.8840 H   0  0  0  0  0  0  0  0  0  0  0  0
    9.0040   -1.1860   -0.7820 H   0  0  0  0  0  0  0  0  0  0  0  0
   -4.1490   -0.1170    0.7270 H   0  0  0  0  0  0  0  0  0  0  0  0
   -2.9930   -0.5730    1.9670 H   0  0  0  0  0  0  0  0  0  0  0  0
    9.0280   -0.5400    2.0750 H   0  0  0  0  0  0  0  0  0  0  0  0
   10.2170   -0.0640    0.8740 H   0  0  0  0  0  0  0  0  0  0  0  0
   -0.0600    6.7280    0.4940 H   0  0  0  0  0  0  0  0  0  0  0  0
    6.1170    6.7530    0.5170 H   0  0  0  0  0  0  0  0  0  0  0  0
   -3.5100   -2.9340    1.6540 H   0  0  0  0  0  0  0  0  0  0  0  0
   -4.6170   -2.5450    0.3340 H   0  0  0  0  0  0  0  0  0  0  0  0
    9.5800   -2.8940    1.7650 H   0  0  0  0  0  0  0  0  0  0  0  0
   10.7220   -2.4860    0.4820 H   0  0  0  0  0  0  0  0  0  0  0  0
   -5.6630   -2.8390    2.3620 H   0  0  0  0  0  0  0  0  0  0  0  0
   11.7090   -2.7790    2.5400 H   0  0  0  0  0  0  0  0  0  0  0  0
  1 17  2  0  0  0  0
  2 18  2  0  0  0  0
  3 23  1  0  0  0  0
  3 53  1  0  0  0  0
  4 24  1  0  0  0  0
  4 54  1  0  0  0  0
  5 31  1  0  0  0  0
  5 59  1  0  0  0  0
  6 32  1  0  0  0  0
  6 60  1  0  0  0  0
  7 13  1  0  0  0  0
  7 21  1  0  0  0  0
  7 35  1  0  0  0  0
  8 14  1  0  0  0  0
  8 22  1  0  0  0  0
  8 36  1  0  0  0  0
  9 25  1  0  0  0  0
  9 29  1  0  0  0  0
  9 47  1  0  0  0  0
 10 26  1  0  0  0  0
 10 30  1  0  0  0  0
 10 48  1  0  0  0  0
 11 12  2  0  0  0  0
 11 13  1  0  0  0  0
 11 17  1  0  0  0  0
 12 14  1  0  0  0  0
 12 18  1  0  0  0  0
 13 19  2  0  0  0  0
 14 20  2  0  0  0  0
 15 16  2  0  0  0  0
 15 17  1  0  0  0  0
 15 23  1  0  0  0  0
 16 18  1  0  0  0  0
 16 24  1  0  0  0  0
 19 20  1  0  0  0  0
 19 33  1  0  0  0  0
 20 34  1  0  0  0  0
 21 25  1  0  0  0  0
 21 37  1  0  0  0  0
 21 38  1  0  0  0  0
 22 26  1  0  0  0  0
 22 39  1  0  0  0  0
 22 40  1  0  0  0  0
 23 27  2  0  0  0  0
 24 28  2  0  0  0  0
 25 41  1  0  0  0  0
 25 42  1  0  0  0  0
 26 43  1  0  0  0  0
 26 44  1  0  0  0  0
 27 28  1  0  0  0  0
 27 45  1  0  0  0  0
 28 46  1  0  0  0  0
 29 31  1  0  0  0  0
 29 49  1  0  0  0  0
 29 50  1  0  0  0  0
 30 32  1  0  0  0  0
 30 51  1  0  0  0  0
 30 52  1  0  0  0  0
 31 55  1  0  0  0  0
 31 56  1  0  0  0  0
 32 57  1  0  0  0  0
 32 58  1  0  0  0  0
M  END
$$$$
Paliperidone
  MOE2024           3D

 58 62  0  0  1  0  0  0  0  0999 V2000
   18.0630   -6.4990    1.2030 F   0  0  0  0  0  0  0  0  0  0  0  0
   16.2680   -2.7190   -1.0400 O   0  0  0  0  0  0  0  0  0  0  0  0
    1.6020   -2.4400    1.2790 O   0  0  0  0  0  0  0  0  0  0  0  0
    6.5430    0.1120   -0.2890 O   0  0  0  0  0  0  0  0  0  0  0  0
   10.0580   -2.6230   -0.5520 N   0  0  0  0  0  0  0  0  0  0  0  0
    4.4850   -0.7770   -0.0660 N   0  0  0  0  0  0  0  0  0  0  0  0
   15.0440   -2.2610   -1.1630 N   0  0  0  0  0  0  0  0  0  0  0  0
    4.2480   -2.9800    0.7190 N   0  0  0  0  0  0  0  0  0  0  0  0
   12.7590   -2.9150   -0.3890 C   0  0  0  0  0  0  0  0  0  0  0  0
   12.2810   -1.4580   -0.4650 C   0  0  0  0  0  0  0  0  0  0  0  0
   12.0430   -3.7530   -1.4640 C   0  0  0  0  0  0  0  0  0  0  0  0
   10.7610   -1.3520   -0.2590 C   0  0  0  0  0  0  0  0  0  0  0  0
   10.6120   -3.2720   -1.7460 C   0  0  0  0  0  0  0  0  0  0  0  0
    8.6060   -2.4190   -0.6920 C   0  0  0  0  0  0  0  0  0  0  0  0
   14.2730   -3.0540   -0.5150 C   0  0  0  0  0  0  0  0  0  0  0  0
    7.9550   -2.1110    0.6590 C   0  0  0  0  0  0  0  0  0  0  0  0
    6.4300   -2.0630    0.5200 C   0  0  0  0  0  0  0  0  0  0  0  0
    3.8830    0.5300   -0.4700 C   0  0  0  0  0  0  0  0  0  0  0  0
    2.1930   -1.8160    0.1870 C   0  0  1  0  0  0  0  0  0  0  0  0
    2.4210    0.4110   -0.9100 C   0  0  0  0  0  0  0  0  0  0  0  0
    1.6160   -0.4030    0.1040 C   0  0  0  0  0  0  0  0  0  0  0  0
    3.7310   -1.8730    0.2980 C   0  0  0  0  0  0  0  0  0  0  0  0
   15.0010   -4.1040    0.0740 C   0  0  0  0  0  0  0  0  0  0  0  0
    5.8560   -0.8500    0.0360 C   0  0  0  0  0  0  0  0  0  0  0  0
    5.6010   -3.0930    0.8290 C   0  0  0  0  0  0  0  0  0  0  0  0
   16.2910   -3.8220   -0.3090 C   0  0  0  0  0  0  0  0  0  0  0  0
   14.7380   -5.2330    0.8620 C   0  0  0  0  0  0  0  0  0  0  0  0
    6.0340   -4.4660    1.3180 C   0  0  0  0  0  0  0  0  0  0  0  0
   17.3710   -4.6170    0.0560 C   0  0  0  0  0  0  0  0  0  0  0  0
   15.7900   -6.0420    1.2410 C   0  0  0  0  0  0  0  0  0  0  0  0
   17.0870   -5.7180    0.8310 C   0  0  0  0  0  0  0  0  0  0  0  0
   12.4710   -3.2910    0.5780 H   0  0  0  0  0  0  0  0  0  0  0  0
   12.7850   -0.8620    0.2740 H   0  0  0  0  0  0  0  0  0  0  0  0
   12.5320   -1.0530   -1.4290 H   0  0  0  0  0  0  0  0  0  0  0  0
   12.0160   -4.7790   -1.1470 H   0  0  0  0  0  0  0  0  0  0  0  0
   12.5960   -3.7140   -2.3860 H   0  0  0  0  0  0  0  0  0  0  0  0
   10.3770   -0.5610   -0.8820 H   0  0  0  0  0  0  0  0  0  0  0  0
   10.5720   -1.0870    0.7670 H   0  0  0  0  0  0  0  0  0  0  0  0
   10.0070   -4.1180   -2.0280 H   0  0  0  0  0  0  0  0  0  0  0  0
   10.6140   -2.5700   -2.5640 H   0  0  0  0  0  0  0  0  0  0  0  0
    8.1600   -3.3210   -1.0760 H   0  0  0  0  0  0  0  0  0  0  0  0
    8.4070   -1.6240   -1.3920 H   0  0  0  0  0  0  0  0  0  0  0  0
    8.3030   -1.1630    1.0270 H   0  0  0  0  0  0  0  0  0  0  0  0
    8.2540   -2.8530    1.3740 H   0  0  0  0  0  0  0  0  0  0  0  0
    3.9510    1.2020    0.3690 H   0  0  0  0  0  0  0  0  0  0  0  0
    4.4550    0.9560   -1.2780 H   0  0  0  0  0  0  0  0  0  0  0  0
    1.9080   -2.3720   -0.6890 H   0  0  0  0  0  0  0  0  0  0  0  0
    1.9990    1.3960   -1.0020 H   0  0  0  0  0  0  0  0  0  0  0  0
    2.3750   -0.0550   -1.8800 H   0  0  0  0  0  0  0  0  0  0  0  0
    1.6740    0.0700    1.0690 H   0  0  0  0  0  0  0  0  0  0  0  0
    0.5840   -0.4540   -0.1970 H   0  0  0  0  0  0  0  0  0  0  0  0
   13.7280   -5.4540    1.1600 H   0  0  0  0  0  0  0  0  0  0  0  0
    5.8350   -4.5510    2.3710 H   0  0  0  0  0  0  0  0  0  0  0  0
    7.0740   -4.6570    1.1400 H   0  0  0  0  0  0  0  0  0  0  0  0
    5.4720   -5.2240    0.8030 H   0  0  0  0  0  0  0  0  0  0  0  0
    2.2090   -3.1600    1.5600 H   0  0  0  0  0  0  0  0  0  0  0  0
   18.3700   -4.3760   -0.2540 H   0  0  0  0  0  0  0  0  0  0  0  0
   15.6350   -6.9170    1.8460 H   0  0  0  0  0  0  0  0  0  0  0  0
  1 31  1  0  0  0  0
  2  7  1  0  0  0  0
  2 26  1  0  0  0  0
  3 19  1  0  0  0  0
  3 56  1  0  0  0  0
  4 24  2  0  0  0  0
  5 12  1  0  0  0  0
  5 13  1  0  0  0  0
  5 14  1  0  0  0  0
  6 18  1  0  0  0  0
  6 22  1  0  0  0  0
  6 24  1  0  0  0  0
  7 15  2  0  0  0  0
  8 22  2  0  0  0  0
  8 25  1  0  0  0  0
  9 10  1  0  0  0  0
  9 11  1  0  0  0  0
  9 15  1  0  0  0  0
  9 32  1  0  0  0  0
 10 12  1  0  0  0  0
 10 33  1  0  0  0  0
 10 34  1  0  0  0  0
 11 13  1  0  0  0  0
 11 35  1  0  0  0  0
 11 36  1  0  0  0  0
 12 37  1  0  0  0  0
 12 38  1  0  0  0  0
 13 39  1  0  0  0  0
 13 40  1  0  0  0  0
 14 16  1  0  0  0  0
 14 41  1  0  0  0  0
 14 42  1  0  0  0  0
 15 23  1  0  0  0  0
 16 17  1  0  0  0  0
 16 43  1  0  0  0  0
 16 44  1  0  0  0  0
 17 24  1  0  0  0  0
 17 25  2  0  0  0  0
 18 20  1  0  0  0  0
 18 45  1  0  0  0  0
 18 46  1  0  0  0  0
 19 21  1  0  0  0  0
 19 22  1  0  0  0  0
 19 47  1  0  0  0  0
 20 21  1  0  0  0  0
 20 48  1  0  0  0  0
 20 49  1  0  0  0  0
 21 50  1  0  0  0  0
 21 51  1  0  0  0  0
 23 26  2  0  0  0  0
 23 27  1  0  0  0  0
 25 28  1  0  0  0  0
 26 29  1  0  0  0  0
 27 30  2  0  0  0  0
 27 52  1  0  0  0  0
 28 53  1  0  0  0  0
 28 54  1  0  0  0  0
 28 55  1  0  0  0  0
 29 31  2  0  0  0  0
 29 57  1  0  0  0  0
 30 31  1  0  0  0  0
 30 58  1  0  0  0  0
M  END
$$$$
Phenytoin
  MOE2024           3D

 31 33  0  0  0  0  0  0  0  0999 V2000
    1.3410   -3.4530   -2.0770 O   0  0  0  0  0  0  0  0  0  0  0  0
   -0.3650   -4.2270    1.9680 O   0  0  0  0  0  0  0  0  0  0  0  0
    1.1600   -2.6890    1.3390 N   0  0  0  0  0  0  0  0  0  0  0  0
    0.1990   -3.9790   -0.1990 N   0  0  0  0  0  0  0  0  0  0  0  0
    1.8820   -2.3650    0.0870 C   0  0  0  0  0  0  0  0  0  0  0  0
    1.6980   -0.8880   -0.3090 C   0  0  0  0  0  0  0  0  0  0  0  0
    3.3610   -2.7080    0.3370 C   0  0  0  0  0  0  0  0  0  0  0  0
    1.1360   -3.2990   -0.8950 C   0  0  0  0  0  0  0  0  0  0  0  0
    0.2620   -3.6600    1.1080 C   0  0  0  0  0  0  0  0  0  0  0  0
    0.8590   -0.0140    0.3770 C   0  0  0  0  0  0  0  0  0  0  0  0
    4.1150   -1.8810    1.1640 C   0  0  0  0  0  0  0  0  0  0  0  0
    2.4010   -0.4030   -1.4060 C   0  0  0  0  0  0  0  0  0  0  0  0
    3.9800   -3.8220   -0.2250 C   0  0  0  0  0  0  0  0  0  0  0  0
    0.7330    1.3060   -0.0220 C   0  0  0  0  0  0  0  0  0  0  0  0
    5.4450   -2.1580    1.4260 C   0  0  0  0  0  0  0  0  0  0  0  0
    2.2760    0.9160   -1.8060 C   0  0  0  0  0  0  0  0  0  0  0  0
    5.3100   -4.0990    0.0370 C   0  0  0  0  0  0  0  0  0  0  0  0
    1.4410    1.7720   -1.1130 C   0  0  0  0  0  0  0  0  0  0  0  0
    6.0440   -3.2690    0.8630 C   0  0  0  0  0  0  0  0  0  0  0  0
    1.6760   -2.6660    2.2160 H   0  0  0  0  0  0  0  0  0  0  0  0
   -0.4070   -4.7010   -0.5700 H   0  0  0  0  0  0  0  0  0  0  0  0
    0.2880   -0.3400    1.2290 H   0  0  0  0  0  0  0  0  0  0  0  0
    3.6700   -1.0060    1.6100 H   0  0  0  0  0  0  0  0  0  0  0  0
    3.0550   -1.0550   -1.9630 H   0  0  0  0  0  0  0  0  0  0  0  0
    3.4470   -4.4940   -0.8760 H   0  0  0  0  0  0  0  0  0  0  0  0
    0.0810    1.9710    0.5180 H   0  0  0  0  0  0  0  0  0  0  0  0
    6.0150   -1.5070    2.0670 H   0  0  0  0  0  0  0  0  0  0  0  0
    2.8280    1.2740   -2.6580 H   0  0  0  0  0  0  0  0  0  0  0  0
    5.7760   -4.9630   -0.4050 H   0  0  0  0  0  0  0  0  0  0  0  0
    1.3430    2.7980   -1.4230 H   0  0  0  0  0  0  0  0  0  0  0  0
    7.0790   -3.4850    1.0650 H   0  0  0  0  0  0  0  0  0  0  0  0
  1  8  2  0  0  0  0
  2  9  2  0  0  0  0
  3  5  1  0  0  0  0
  3  9  1  0  0  0  0
  3 20  1  0  0  0  0
  4  8  1  0  0  0  0
  4  9  1  0  0  0  0
  4 21  1  0  0  0  0
  5  6  1  0  0  0  0
  5  7  1  0  0  0  0
  5  8  1  0  0  0  0
  6 10  2  0  0  0  0
  6 12  1  0  0  0  0
  7 11  2  0  0  0  0
  7 13  1  0  0  0  0
 10 14  1  0  0  0  0
 10 22  1  0  0  0  0
 11 15  1  0  0  0  0
 11 23  1  0  0  0  0
 12 16  2  0  0  0  0
 12 24  1  0  0  0  0
 13 17  2  0  0  0  0
 13 25  1  0  0  0  0
 14 18  2  0  0  0  0
 14 26  1  0  0  0  0
 15 19  2  0  0  0  0
 15 27  1  0  0  0  0
 16 18  1  0  0  0  0
 16 28  1  0  0  0  0
 17 19  1  0  0  0  0
 17 29  1  0  0  0  0
 18 30  1  0  0  0  0
 19 31  1  0  0  0  0
M  END
$$$$
Piperacillin
  MOE2024           3D

 63 66  0  0  1  0  0  0  0  0999 V2000
    6.0940   -4.2960    1.1760 S   0  0  0  0  0  0  0  0  0  0  0  0
    5.1650   -6.3830   -2.2320 O   0  0  0  0  0  0  0  0  0  0  0  0
    9.7730   -6.9410   -0.1320 O   0  0  0  0  0  0  0  0  0  0  0  0
    9.5610   -4.8120   -0.2100 O   0  0  0  0  0  0  0  0  0  0  0  0
    3.5230   -1.8120   -0.5000 O   0  0  0  0  0  0  0  0  0  0  0  0
    2.4180   -5.9180    0.8410 O   0  0  0  0  0  0  0  0  0  0  0  0
   -0.8280   -5.2150   -1.3770 O   0  0  0  0  0  0  0  0  0  0  0  0
   -2.2490   -7.3780   -2.3420 O   0  0  0  0  0  0  0  0  0  0  0  0
    6.8360   -5.1290   -1.1760 N   0  0  0  0  0  0  0  0  0  0  0  0
    3.7560   -4.0090   -0.7480 N   0  0  0  0  0  0  0  0  0  0  0  0
    1.0370   -4.2950    0.2950 N   0  0  0  0  0  0  0  0  0  0  0  0
    0.5220   -6.5820   -0.1840 N   0  0  0  0  0  0  0  0  0  0  0  0
   -1.2710   -8.7390   -0.8670 N   0  0  0  0  0  0  0  0  0  0  0  0
    6.3190   -3.8590   -0.5670 C   0  0  1  0  0  0  0  0  0  0  0  0
    6.8170   -5.9540    1.1510 C   0  0  0  0  0  0  0  0  0  0  0  0
    7.4950   -6.0900   -0.2420 C   0  0  2  0  0  0  0  0  0  0  0  0
    5.0610   -3.9800   -1.4690 C   0  0  1  0  0  0  0  0  0  0  0  0
    5.6330   -5.3710   -1.7650 C   0  0  0  0  0  0  0  0  0  0  0  0
    7.7350   -6.0390    2.3800 C   0  0  0  0  0  0  0  0  0  0  0  0
    5.6390   -6.9250    1.3150 C   0  0  0  0  0  0  0  0  0  0  0  0
    9.0140   -5.8800   -0.1950 C   0  0  0  0  0  0  0  0  0  0  0  0
    3.1160   -2.9230   -0.2450 C   0  0  0  0  0  0  0  0  0  0  0  0
    1.9000   -3.1470    0.6960 C   0  0  1  0  0  0  0  0  0  0  0  0
    0.9770   -1.9360    0.8160 C   0  0  0  0  0  0  0  0  0  0  0  0
    1.3540   -5.6060    0.3410 C   0  0  0  0  0  0  0  0  0  0  0  0
    0.7430   -1.3570    2.0570 C   0  0  0  0  0  0  0  0  0  0  0  0
    0.3510   -1.4050   -0.3040 C   0  0  0  0  0  0  0  0  0  0  0  0
    0.9230   -8.0090    0.0540 C   0  0  0  0  0  0  0  0  0  0  0  0
   -0.2830   -8.9430    0.2210 C   0  0  0  0  0  0  0  0  0  0  0  0
   -0.5770   -6.3570   -1.0210 C   0  0  0  0  0  0  0  0  0  0  0  0
   -0.1020   -0.2680    2.1750 C   0  0  0  0  0  0  0  0  0  0  0  0
   -0.4960   -0.3160   -0.1860 C   0  0  0  0  0  0  0  0  0  0  0  0
   -1.4150   -7.4930   -1.4590 C   0  0  0  0  0  0  0  0  0  0  0  0
   -2.1300   -9.9030   -1.2180 C   0  0  0  0  0  0  0  0  0  0  0  0
   -0.7230    0.2530    1.0530 C   0  0  0  0  0  0  0  0  0  0  0  0
   -3.2190  -10.0700   -0.1610 C   0  0  0  0  0  0  0  0  0  0  0  0
    6.9680   -3.0150   -0.7130 H   0  0  0  0  0  0  0  0  0  0  0  0
    7.3320   -7.0870   -0.6120 H   0  0  0  0  0  0  0  0  0  0  0  0
    5.0660   -3.3200   -2.3180 H   0  0  0  0  0  0  0  0  0  0  0  0
    7.1590   -5.9260    3.2810 H   0  0  0  0  0  0  0  0  0  0  0  0
    8.4740   -5.2570    2.3630 H   0  0  0  0  0  0  0  0  0  0  0  0
    8.2330   -6.9910    2.4140 H   0  0  0  0  0  0  0  0  0  0  0  0
    5.0990   -6.7120    2.2210 H   0  0  0  0  0  0  0  0  0  0  0  0
    4.9540   -6.8460    0.4910 H   0  0  0  0  0  0  0  0  0  0  0  0
    5.9960   -7.9380    1.3610 H   0  0  0  0  0  0  0  0  0  0  0  0
    3.4850   -4.9310   -0.3760 H   0  0  0  0  0  0  0  0  0  0  0  0
    2.3070   -3.3660    1.6670 H   0  0  0  0  0  0  0  0  0  0  0  0
   10.7090   -6.6770   -0.1290 H   0  0  0  0  0  0  0  0  0  0  0  0
    0.2010   -4.0360   -0.2450 H   0  0  0  0  0  0  0  0  0  0  0  0
    1.2150   -1.7510    2.9400 H   0  0  0  0  0  0  0  0  0  0  0  0
    0.5220   -1.8340   -1.2770 H   0  0  0  0  0  0  0  0  0  0  0  0
    1.5260   -8.0910    0.9420 H   0  0  0  0  0  0  0  0  0  0  0  0
    1.5220   -8.3420   -0.7760 H   0  0  0  0  0  0  0  0  0  0  0  0
    0.0620   -9.9630    0.2160 H   0  0  0  0  0  0  0  0  0  0  0  0
   -0.7570   -8.7550    1.1700 H   0  0  0  0  0  0  0  0  0  0  0  0
   -0.2770    0.1760    3.1400 H   0  0  0  0  0  0  0  0  0  0  0  0
   -0.9750    0.0870   -1.0610 H   0  0  0  0  0  0  0  0  0  0  0  0
   -2.5870   -9.7510   -2.1820 H   0  0  0  0  0  0  0  0  0  0  0  0
   -1.5290  -10.7940   -1.2780 H   0  0  0  0  0  0  0  0  0  0  0  0
   -1.3790    1.1000    1.1450 H   0  0  0  0  0  0  0  0  0  0  0  0
   -3.8590  -10.8890   -0.4330 H   0  0  0  0  0  0  0  0  0  0  0  0
   -2.7930  -10.2770    0.8030 H   0  0  0  0  0  0  0  0  0  0  0  0
   -3.8190   -9.1780   -0.1080 H   0  0  0  0  0  0  0  0  0  0  0  0
  1 14  1  0  0  0  0
  1 15  1  0  0  0  0
  2 18  2  0  0  0  0
  3 21  1  0  0  0  0
  3 48  1  0  0  0  0
  4 21  2  0  0  0  0
  5 22  2  0  0  0  0
  6 25  2  0  0  0  0
  7 30  2  0  0  0  0
  8 33  2  0  0  0  0
  9 14  1  0  0  0  0
  9 16  1  0  0  0  0
  9 18  1  0  0  0  0
 10 17  1  0  0  0  0
 10 22  1  0  0  0  0
 10 46  1  0  0  0  0
 11 23  1  0  0  0  0
 11 25  1  0  0  0  0
 11 49  1  0  0  0  0
 12 25  1  0  0  0  0
 12 28  1  0  0  0  0
 12 30  1  0  0  0  0
 13 29  1  0  0  0  0
 13 33  1  0  0  0  0
 13 34  1  0  0  0  0
 14 17  1  0  0  0  0
 14 37  1  0  0  0  0
 15 16  1  0  0  0  0
 15 19  1  0  0  0  0
 15 20  1  0  0  0  0
 16 21  1  0  0  0  0
 16 38  1  0  0  0  0
 17 18  1  0  0  0  0
 17 39  1  0  0  0  0
 19 40  1  0  0  0  0
 19 41  1  0  0  0  0
 19 42  1  0  0  0  0
 20 43  1  0  0  0  0
 20 44  1  0  0  0  0
 20 45  1  0  0  0  0
 22 23  1  0  0  0  0
 23 24  1  0  0  0  0
 23 47  1  0  0  0  0
 24 26  2  0  0  0  0
 24 27  1  0  0  0  0
 26 31  1  0  0  0  0
 26 50  1  0  0  0  0
 27 32  2  0  0  0  0
 27 51  1  0  0  0  0
 28 29  1  0  0  0  0
 28 52  1  0  0  0  0
 28 53  1  0  0  0  0
 29 54  1  0  0  0  0
 29 55  1  0  0  0  0
 30 33  1  0  0  0  0
 31 35  2  0  0  0  0
 31 56  1  0  0  0  0
 32 35  1  0  0  0  0
 32 57  1  0  0  0  0
 34 36  1  0  0  0  0
 34 58  1  0  0  0  0
 34 59  1  0  0  0  0
 35 60  1  0  0  0  0
 36 61  1  0  0  0  0
 36 62  1  0  0  0  0
 36 63  1  0  0  0  0
M  END
$$$$
Raltegravir
  MOE2024           3D

 53 55  0  0  0  0  0  0  0  0999 V2000
   18.5540    1.3090    2.8330 F   0  0  0  0  0  0  0  0  0  0  0  0
   12.3010    3.1230    1.7770 O   0  0  0  0  0  0  0  0  0  0  0  0
   10.3170    4.7120    2.4670 O   0  0  0  0  0  0  0  0  0  0  0  0
    6.8140    2.2060    0.5580 O   0  0  0  0  0  0  0  0  0  0  0  0
    4.1310    2.1270    1.2800 O   0  0  0  0  0  0  0  0  0  0  0  0
   12.1850    1.5100   -2.0450 O   0  0  0  0  0  0  0  0  0  0  0  0
    6.4770    3.8130   -0.9470 N   0  0  0  0  0  0  0  0  0  0  0  0
    9.1320    4.3770    0.5600 N   0  0  0  0  0  0  0  0  0  0  0  0
   10.0030    2.8990   -1.0310 N   0  0  0  0  0  0  0  0  0  0  0  0
   13.1090    1.1850   -0.0750 N   0  0  0  0  0  0  0  0  0  0  0  0
    3.6950    3.7070   -0.1520 N   0  0  0  0  0  0  0  0  0  0  0  0
    2.5720    3.3850    0.4420 N   0  0  0  0  0  0  0  0  0  0  0  0
    7.8070    3.7960   -1.6060 C   0  0  0  0  0  0  0  0  0  0  0  0
    9.0470    3.6710   -0.6400 C   0  0  0  0  0  0  0  0  0  0  0  0
    7.9150    5.0890   -2.4260 C   0  0  0  0  0  0  0  0  0  0  0  0
    7.7220    2.6330   -2.6140 C   0  0  0  0  0  0  0  0  0  0  0  0
   10.2200    4.1550    1.3760 C   0  0  0  0  0  0  0  0  0  0  0  0
   11.1470    2.6640   -0.2850 C   0  0  0  0  0  0  0  0  0  0  0  0
    8.0930    5.3260    1.0740 C   0  0  0  0  0  0  0  0  0  0  0  0
   11.2530    3.2790    0.9340 C   0  0  0  0  0  0  0  0  0  0  0  0
    6.0150    2.9480    0.0140 C   0  0  0  0  0  0  0  0  0  0  0  0
   12.1530    1.7700   -0.8540 C   0  0  0  0  0  0  0  0  0  0  0  0
    4.6040    2.9450    0.3640 C   0  0  0  0  0  0  0  0  0  0  0  0
   14.2380    0.3810   -0.5630 C   0  0  0  0  0  0  0  0  0  0  0  0
   15.4170    0.6250    0.3610 C   0  0  0  0  0  0  0  0  0  0  0  0
   16.1950    1.7650    0.1990 C   0  0  0  0  0  0  0  0  0  0  0  0
   15.7140   -0.2800    1.3740 C   0  0  0  0  0  0  0  0  0  0  0  0
    2.8780    2.4610    1.2650 C   0  0  0  0  0  0  0  0  0  0  0  0
   17.2690    2.0040    1.0390 C   0  0  0  0  0  0  0  0  0  0  0  0
   16.7860   -0.0520    2.2210 C   0  0  0  0  0  0  0  0  0  0  0  0
   17.5440    1.0880    2.0360 C   0  0  0  0  0  0  0  0  0  0  0  0
    1.9240    1.7490    2.1950 C   0  0  0  0  0  0  0  0  0  0  0  0
    8.5930    2.6170   -3.2460 H   0  0  0  0  0  0  0  0  0  0  0  0
    6.8550    2.7210   -3.2430 H   0  0  0  0  0  0  0  0  0  0  0  0
    7.6840    1.6930   -2.0910 H   0  0  0  0  0  0  0  0  0  0  0  0
    7.9320    5.9590   -1.7980 H   0  0  0  0  0  0  0  0  0  0  0  0
    8.8330    5.0780   -2.9880 H   0  0  0  0  0  0  0  0  0  0  0  0
    7.1000    5.1740   -3.1230 H   0  0  0  0  0  0  0  0  0  0  0  0
    5.7670    4.3420   -1.4560 H   0  0  0  0  0  0  0  0  0  0  0  0
    8.5600    6.1370    1.6060 H   0  0  0  0  0  0  0  0  0  0  0  0
    7.5130    5.7550    0.2830 H   0  0  0  0  0  0  0  0  0  0  0  0
    7.4400    4.8030    1.7510 H   0  0  0  0  0  0  0  0  0  0  0  0
   13.1990    1.5180    0.8900 H   0  0  0  0  0  0  0  0  0  0  0  0
   14.4890    0.6670   -1.5710 H   0  0  0  0  0  0  0  0  0  0  0  0
   13.9610   -0.6590   -0.5630 H   0  0  0  0  0  0  0  0  0  0  0  0
   12.1780    3.6590    2.5950 H   0  0  0  0  0  0  0  0  0  0  0  0
   15.9610    2.4690   -0.5820 H   0  0  0  0  0  0  0  0  0  0  0  0
   15.1100   -1.1610    1.5070 H   0  0  0  0  0  0  0  0  0  0  0  0
   17.8810    2.8810    0.9270 H   0  0  0  0  0  0  0  0  0  0  0  0
   17.0310   -0.7400    3.0100 H   0  0  0  0  0  0  0  0  0  0  0  0
    0.9290    2.1350    2.0680 H   0  0  0  0  0  0  0  0  0  0  0  0
    2.2310    1.8980    3.2130 H   0  0  0  0  0  0  0  0  0  0  0  0
    1.9230    0.6970    1.9770 H   0  0  0  0  0  0  0  0  0  0  0  0
  1 31  1  0  0  0  0
  2 20  1  0  0  0  0
  2 46  1  0  0  0  0
  3 17  2  0  0  0  0
  4 21  2  0  0  0  0
  5 23  1  0  0  0  0
  5 28  1  0  0  0  0
  6 22  2  0  0  0  0
  7 13  1  0  0  0  0
  7 21  1  0  0  0  0
  7 39  1  0  0  0  0
  8 14  1  0  0  0  0
  8 17  1  0  0  0  0
  8 19  1  0  0  0  0
  9 14  2  0  0  0  0
  9 18  1  0  0  0  0
 10 22  1  0  0  0  0
 10 24  1  0  0  0  0
 10 43  1  0  0  0  0
 11 12  1  0  0  0  0
 11 23  2  0  0  0  0
 12 28  2  0  0  0  0
 13 14  1  0  0  0  0
 13 15  1  0  0  0  0
 13 16  1  0  0  0  0
 15 36  1  0  0  0  0
 15 37  1  0  0  0  0
 15 38  1  0  0  0  0
 16 33  1  0  0  0  0
 16 34  1  0  0  0  0
 16 35  1  0  0  0  0
 17 20  1  0  0  0  0
 18 20  2  0  0  0  0
 18 22  1  0  0  0  0
 19 40  1  0  0  0  0
 19 41  1  0  0  0  0
 19 42  1  0  0  0  0
 21 23  1  0  0  0  0
 24 25  1  0  0  0  0
 24 44  1  0  0  0  0
 24 45  1  0  0  0  0
 25 26  2  0  0  0  0
 25 27  1  0  0  0  0
 26 29  1  0  0  0  0
 26 47  1  0  0  0  0
 27 30  2  0  0  0  0
 27 48  1  0  0  0  0
 28 32  1  0  0  0  0
 29 31  2  0  0  0  0
 29 49  1  0  0  0  0
 30 31  1  0  0  0  0
 30 50  1  0  0  0  0
 32 51  1  0  0  0  0
 32 52  1  0  0  0  0
 32 53  1  0  0  0  0
M  END
$$$$
Ribavirin
  MOE2024           3D

 29 30  0  0  1  0  0  0  0  0999 V2000
   -0.2820    0.3650   -0.0090 O   0  0  0  0  0  0  0  0  0  0  0  0
   -0.3570   -0.5000   -2.8550 O   0  0  0  0  0  0  0  0  0  0  0  0
   -1.3790   -2.4940   -1.5470 O   0  0  0  0  0  0  0  0  0  0  0  0
   -1.0560   -0.5100    2.5890 O   0  0  0  0  0  0  0  0  0  0  0  0
    5.6380   -1.6730    1.9430 O   0  0  0  0  0  0  0  0  0  0  0  0
    2.0280   -0.0130   -0.0690 N   0  0  0  0  0  0  0  0  0  0  0  0
    2.8570   -1.0470   -0.2100 N   0  0  0  0  0  0  0  0  0  0  0  0
    3.4820    0.2260    1.5110 N   0  0  0  0  0  0  0  0  0  0  0  0
    5.1590   -2.7900    0.1390 N   0  0  0  0  0  0  0  0  0  0  0  0
   -0.3370   -1.8430   -0.8700 C   0  0  1  0  0  0  0  0  0  0  0  0
    0.4580   -0.9290   -1.8050 C   0  0  2  0  0  0  0  0  0  0  0  0
   -0.8750   -0.8900    0.2160 C   0  0  1  0  0  0  0  0  0  0  0  0
    0.8050    0.2450   -0.8860 C   0  0  1  0  0  0  0  0  0  0  0  0
   -0.5580   -1.3920    1.6400 C   0  0  0  0  0  0  0  0  0  0  0  0
    2.4300    0.7150    0.9720 C   0  0  0  0  0  0  0  0  0  0  0  0
    3.7400   -0.8720    0.7550 C   0  0  0  0  0  0  0  0  0  0  0  0
    4.8810   -1.7690    0.9940 C   0  0  0  0  0  0  0  0  0  0  0  0
    1.3240   -1.4050   -2.2280 H   0  0  0  0  0  0  0  0  0  0  0  0
    0.3110   -2.5870   -0.4390 H   0  0  0  0  0  0  0  0  0  0  0  0
   -1.9380   -0.7610    0.1040 H   0  0  0  0  0  0  0  0  0  0  0  0
    0.9250    1.1590   -1.4380 H   0  0  0  0  0  0  0  0  0  0  0  0
   -1.0170   -2.3500    1.8090 H   0  0  0  0  0  0  0  0  0  0  0  0
    0.5050   -1.4800    1.7830 H   0  0  0  0  0  0  0  0  0  0  0  0
   -1.0840   -1.1620   -2.9320 H   0  0  0  0  0  0  0  0  0  0  0  0
   -1.8850   -3.0770   -0.9450 H   0  0  0  0  0  0  0  0  0  0  0  0
    1.9050    1.5940    1.3020 H   0  0  0  0  0  0  0  0  0  0  0  0
   -0.7080   -0.7140    3.4800 H   0  0  0  0  0  0  0  0  0  0  0  0
    5.9800   -3.3710    0.2970 H   0  0  0  0  0  0  0  0  0  0  0  0
    4.6180   -2.9240   -0.7150 H   0  0  0  0  0  0  0  0  0  0  0  0
  1 12  1  0  0  0  0
  1 13  1  0  0  0  0
  2 11  1  0  0  0  0
  2 24  1  0  0  0  0
  3 10  1  0  0  0  0
  3 25  1  0  0  0  0
  4 14  1  0  0  0  0
  4 27  1  0  0  0  0
  5 17  2  0  0  0  0
  6  7  1  0  0  0  0
  6 13  1  0  0  0  0
  6 15  1  0  0  0  0
  7 16  2  0  0  0  0
  8 15  2  0  0  0  0
  8 16  1  0  0  0  0
  9 17  1  0  0  0  0
  9 28  1  0  0  0  0
  9 29  1  0  0  0  0
 10 11  1  0  0  0  0
 10 12  1  0  0  0  0
 10 19  1  0  0  0  0
 11 13  1  0  0  0  0
 11 18  1  0  0  0  0
 12 14  1  0  0  0  0
 12 20  1  0  0  0  0
 13 21  1  0  0  0  0
 14 22  1  0  0  0  0
 14 23  1  0  0  0  0
 15 26  1  0  0  0  0
 16 17  1  0  0  0  0
M  END
$$$$
Saquinavir
  MOE2024           3D

 99103  0  0  1  0  0  0  0  0999 V2000
   -0.3930   -2.3510   -0.2720 N   0  0  1  0  0  0  0  0  0  0  0  0
   -1.4280   -1.2800   -0.1220 C   0  0  1  0  0  0  0  0  0  0  0  0
   -0.9550   -3.4800   -1.0360 C   0  0  0  0  0  0  0  0  0  0  0  0
    0.8670   -1.8420   -0.8620 C   0  0  0  0  0  0  0  0  0  0  0  0
   -2.5750   -1.8360    0.7330 C   0  0  0  0  0  0  0  0  0  0  0  0
   -0.9170    0.0760    0.4300 C   0  0  0  0  0  0  0  0  0  0  0  0
   -2.1450   -4.1270   -0.3070 C   0  0  2  0  0  0  0  0  0  0  0  0
    2.0140   -2.8730   -0.8890 C   0  0  2  0  0  0  0  0  0  0  0  0
   -3.2180   -3.0960    0.1200 C   0  0  1  0  0  0  0  0  0  0  0  0
   -0.5750    1.0380   -0.4810 N   0  0  0  0  0  0  0  0  0  0  0  0
   -0.8150    0.2560    1.6230 O   0  0  0  0  0  0  0  0  0  0  0  0
   -1.7010   -4.9740    0.8980 C   0  0  0  0  0  0  0  0  0  0  0  0
    3.3910   -2.2230   -0.6040 C   0  0  2  0  0  0  0  0  0  0  0  0
    2.0160   -3.5170   -2.1260 O   0  0  0  0  0  0  0  0  0  0  0  0
   -4.2540   -3.6810    1.1110 C   0  0  0  0  0  0  0  0  0  0  0  0
   -2.8750   -5.7720    1.5030 C   0  0  0  0  0  0  0  0  0  0  0  0
    3.8280   -1.1900   -1.6620 C   0  0  0  0  0  0  0  0  0  0  0  0
    4.4520   -3.2460   -0.3860 N   0  0  0  0  0  0  0  0  0  0  0  0
   -4.2610   -5.2140    1.1300 C   0  0  0  0  0  0  0  0  0  0  0  0
    5.1550   -0.5270   -1.3130 C   0  0  0  0  0  0  0  0  0  0  0  0
    5.0430   -4.0720   -1.2880 C   0  0  0  0  0  0  0  0  0  0  0  0
    6.3230   -4.8350   -0.8870 C   0  0  1  0  0  0  0  0  0  0  0  0
    4.5820   -4.2300   -2.3940 O   0  0  0  0  0  0  0  0  0  0  0  0
    7.4230   -3.9400   -0.4000 N   0  0  0  0  0  0  0  0  0  0  0  0
    6.0380   -5.9280    0.1470 C   0  0  0  0  0  0  0  0  0  0  0  0
    7.4490   -3.1120    0.6920 C   0  0  0  0  0  0  0  0  0  0  0  0
    5.1250   -6.9680   -0.4500 C   0  0  0  0  0  0  0  0  0  0  0  0
    8.5670   -2.1840    0.8830 C   0  0  0  0  0  0  0  0  0  0  0  0
    6.5200   -3.1720    1.4810 O   0  0  0  0  0  0  0  0  0  0  0  0
    3.7930   -6.8480   -0.3220 N   0  0  0  0  0  0  0  0  0  0  0  0
    5.6020   -7.8950   -1.0480 O   0  0  0  0  0  0  0  0  0  0  0  0
    9.5910   -2.2210    0.0500 N   0  0  0  0  0  0  0  0  0  0  0  0
    8.5250   -1.2620    1.9530 C   0  0  0  0  0  0  0  0  0  0  0  0
   10.6040   -1.3420    0.2320 C   0  0  0  0  0  0  0  0  0  0  0  0
    9.5340   -0.3720    2.1580 C   0  0  0  0  0  0  0  0  0  0  0  0
   10.6220   -0.3910    1.2750 C   0  0  0  0  0  0  0  0  0  0  0  0
   11.6880   -1.3690   -0.6610 C   0  0  0  0  0  0  0  0  0  0  0  0
   11.7140    0.4910    1.3830 C   0  0  0  0  0  0  0  0  0  0  0  0
   12.7420   -0.5030   -0.5400 C   0  0  0  0  0  0  0  0  0  0  0  0
   12.7540    0.4380    0.4950 C   0  0  0  0  0  0  0  0  0  0  0  0
    6.4330    1.0200    0.0120 C   0  0  0  0  0  0  0  0  0  0  0  0
    5.2290    0.4090   -0.2920 C   0  0  0  0  0  0  0  0  0  0  0  0
    6.3020   -0.8500   -2.0200 C   0  0  0  0  0  0  0  0  0  0  0  0
    7.5070   -0.2400   -1.7180 C   0  0  0  0  0  0  0  0  0  0  0  0
    7.5730    0.6980   -0.7030 C   0  0  0  0  0  0  0  0  0  0  0  0
    0.0260    2.3540   -0.2510 C   0  0  0  0  0  0  0  0  0  0  0  0
    0.2060    2.9930   -1.6270 C   0  0  0  0  0  0  0  0  0  0  0  0
   -0.9100    3.2150    0.5970 C   0  0  0  0  0  0  0  0  0  0  0  0
    1.3920    2.1820    0.4140 C   0  0  0  0  0  0  0  0  0  0  0  0
   -1.8300   -1.0720   -1.0970 H   0  0  0  0  0  0  0  0  0  0  0  0
   -0.2070   -4.2380   -1.1880 H   0  0  0  0  0  0  0  0  0  0  0  0
   -1.2680   -3.1350   -2.0060 H   0  0  0  0  0  0  0  0  0  0  0  0
    1.2050   -1.0260   -0.2500 H   0  0  0  0  0  0  0  0  0  0  0  0
    0.6930   -1.4640   -1.8550 H   0  0  0  0  0  0  0  0  0  0  0  0
   -3.3260   -1.0760    0.8560 H   0  0  0  0  0  0  0  0  0  0  0  0
   -2.1780   -2.0580    1.7090 H   0  0  0  0  0  0  0  0  0  0  0  0
   -2.5940   -4.8030   -1.0140 H   0  0  0  0  0  0  0  0  0  0  0  0
    1.8310   -3.6110   -0.1290 H   0  0  0  0  0  0  0  0  0  0  0  0
   -3.7380   -2.7990   -0.7740 H   0  0  0  0  0  0  0  0  0  0  0  0
   -0.6800    0.8190   -1.4690 H   0  0  0  0  0  0  0  0  0  0  0  0
   -0.9210   -5.6540    0.6060 H   0  0  0  0  0  0  0  0  0  0  0  0
   -1.2900   -4.3180    1.6470 H   0  0  0  0  0  0  0  0  0  0  0  0
    3.2900   -1.6940    0.3280 H   0  0  0  0  0  0  0  0  0  0  0  0
    2.9220   -3.8900   -2.2960 H   0  0  0  0  0  0  0  0  0  0  0  0
   -5.2350   -3.3150    0.8610 H   0  0  0  0  0  0  0  0  0  0  0  0
   -4.0370   -3.3480    2.1120 H   0  0  0  0  0  0  0  0  0  0  0  0
   -2.8190   -6.7950    1.1750 H   0  0  0  0  0  0  0  0  0  0  0  0
   -2.7690   -5.7720    2.5750 H   0  0  0  0  0  0  0  0  0  0  0  0
    3.0810   -0.4230   -1.7450 H   0  0  0  0  0  0  0  0  0  0  0  0
    3.8940   -1.6630   -2.6260 H   0  0  0  0  0  0  0  0  0  0  0  0
    5.0100   -3.0740    0.4680 H   0  0  0  0  0  0  0  0  0  0  0  0
   -4.5440   -5.5760    0.1560 H   0  0  0  0  0  0  0  0  0  0  0  0
   -4.9940   -5.5700    1.8330 H   0  0  0  0  0  0  0  0  0  0  0  0
    6.6830   -5.3230   -1.7770 H   0  0  0  0  0  0  0  0  0  0  0  0
    8.2040   -3.8160   -1.0540 H   0  0  0  0  0  0  0  0  0  0  0  0
    5.5800   -5.5160    1.0260 H   0  0  0  0  0  0  0  0  0  0  0  0
    6.9580   -6.4050    0.4290 H   0  0  0  0  0  0  0  0  0  0  0  0
    3.3250   -6.0440    0.0970 H   0  0  0  0  0  0  0  0  0  0  0  0
    3.1890   -7.5340   -0.7780 H   0  0  0  0  0  0  0  0  0  0  0  0
    7.6700   -1.2760    2.6050 H   0  0  0  0  0  0  0  0  0  0  0  0
    9.5140    0.3350    2.9690 H   0  0  0  0  0  0  0  0  0  0  0  0
   11.6660   -2.0990   -1.4490 H   0  0  0  0  0  0  0  0  0  0  0  0
   11.7180    1.2130    2.1810 H   0  0  0  0  0  0  0  0  0  0  0  0
   13.5670   -0.5340   -1.2310 H   0  0  0  0  0  0  0  0  0  0  0  0
   13.5880    1.1140    0.5790 H   0  0  0  0  0  0  0  0  0  0  0  0
    6.4840    1.7480    0.8030 H   0  0  0  0  0  0  0  0  0  0  0  0
    4.3500    0.6710    0.2710 H   0  0  0  0  0  0  0  0  0  0  0  0
    6.2610   -1.5790   -2.8110 H   0  0  0  0  0  0  0  0  0  0  0  0
    8.3950   -0.4960   -2.2690 H   0  0  0  0  0  0  0  0  0  0  0  0
    8.5110    1.1720   -0.4700 H   0  0  0  0  0  0  0  0  0  0  0  0
    0.6470    3.9680   -1.5230 H   0  0  0  0  0  0  0  0  0  0  0  0
    0.8560    2.3970   -2.2420 H   0  0  0  0  0  0  0  0  0  0  0  0
   -0.7440    3.1070   -2.1180 H   0  0  0  0  0  0  0  0  0  0  0  0
   -1.0160    2.8020    1.5840 H   0  0  0  0  0  0  0  0  0  0  0  0
   -0.5110    4.2070    0.6970 H   0  0  0  0  0  0  0  0  0  0  0  0
   -1.8800    3.2800    0.1390 H   0  0  0  0  0  0  0  0  0  0  0  0
    1.2850    1.7480    1.3920 H   0  0  0  0  0  0  0  0  0  0  0  0
    2.0260    1.5530   -0.1820 H   0  0  0  0  0  0  0  0  0  0  0  0
    1.8690    3.1390    0.5280 H   0  0  0  0  0  0  0  0  0  0  0  0
  1  2  1  0  0  0  0
  1  3  1  0  0  0  0
  1  4  1  0  0  0  0
  2  5  1  0  0  0  0
  2  6  1  0  0  0  0
  2 50  1  0  0  0  0
  3  7  1  0  0  0  0
  3 51  1  0  0  0  0
  3 52  1  0  0  0  0
  4  8  1  0  0  0  0
  4 53  1  0  0  0  0
  4 54  1  0  0  0  0
  5  9  1  0  0  0  0
  5 55  1  0  0  0  0
  5 56  1  0  0  0  0
  6 10  1  0  0  0  0
  6 11  2  0  0  0  0
  7  9  1  0  0  0  0
  7 12  1  0  0  0  0
  7 57  1  0  0  0  0
  8 13  1  0  0  0  0
  8 14  1  0  0  0  0
  8 58  1  0  0  0  0
  9 15  1  0  0  0  0
  9 59  1  0  0  0  0
 10 46  1  0  0  0  0
 10 60  1  0  0  0  0
 12 16  1  0  0  0  0
 12 61  1  0  0  0  0
 12 62  1  0  0  0  0
 13 17  1  0  0  0  0
 13 18  1  0  0  0  0
 13 63  1  0  0  0  0
 14 64  1  0  0  0  0
 15 19  1  0  0  0  0
 15 65  1  0  0  0  0
 15 66  1  0  0  0  0
 16 19  1  0  0  0  0
 16 67  1  0  0  0  0
 16 68  1  0  0  0  0
 17 20  1  0  0  0  0
 17 69  1  0  0  0  0
 17 70  1  0  0  0  0
 18 21  1  0  0  0  0
 18 71  1  0  0  0  0
 19 72  1  0  0  0  0
 19 73  1  0  0  0  0
 20 42  2  0  0  0  0
 20 43  1  0  0  0  0
 21 22  1  0  0  0  0
 21 23  2  0  0  0  0
 22 24  1  0  0  0  0
 22 25  1  0  0  0  0
 22 74  1  0  0  0  0
 24 26  1  0  0  0  0
 24 75  1  0  0  0  0
 25 27  1  0  0  0  0
 25 76  1  0  0  0  0
 25 77  1  0  0  0  0
 26 28  1  0  0  0  0
 26 29  2  0  0  0  0
 27 30  1  0  0  0  0
 27 31  2  0  0  0  0
 28 32  2  0  0  0  0
 28 33  1  0  0  0  0
 30 78  1  0  0  0  0
 30 79  1  0  0  0  0
 32 34  1  0  0  0  0
 33 35  2  0  0  0  0
 33 80  1  0  0  0  0
 34 36  1  0  0  0  0
 34 37  2  0  0  0  0
 35 36  1  0  0  0  0
 35 81  1  0  0  0  0
 36 38  2  0  0  0  0
 37 39  1  0  0  0  0
 37 82  1  0  0  0  0
 38 40  1  0  0  0  0
 38 83  1  0  0  0  0
 39 40  2  0  0  0  0
 39 84  1  0  0  0  0
 40 85  1  0  0  0  0
 41 42  1  0  0  0  0
 41 45  2  0  0  0  0
 41 86  1  0  0  0  0
 42 87  1  0  0  0  0
 43 44  2  0  0  0  0
 43 88  1  0  0  0  0
 44 45  1  0  0  0  0
 44 89  1  0  0  0  0
 45 90  1  0  0  0  0
 46 47  1  0  0  0  0
 46 48  1  0  0  0  0
 46 49  1  0  0  0  0
 47 91  1  0  0  0  0
 47 92  1  0  0  0  0
 47 93  1  0  0  0  0
 48 94  1  0  0  0  0
 48 95  1  0  0  0  0
 48 96  1  0  0  0  0
 49 97  1  0  0  0  0
 49 98  1  0  0  0  0
 49 99  1  0  0  0  0
M  END
$$$$
Sunitinib
  MOE2024           3D

 56 58  0  0  0  0  0  0  0  0999 V2000
   -0.4130   -4.8980    2.8220 F   0  0  0  0  0  0  0  0  0  0  0  0
    8.9680   -3.3240   -1.1580 O   0  0  0  0  0  0  0  0  0  0  0  0
    3.8780   -8.5030   -1.4190 O   0  0  0  0  0  0  0  0  0  0  0  0
   13.3050   -3.9530    0.1750 N   0  0  0  0  0  0  0  0  0  0  0  0
    5.9730   -6.7190   -1.2970 N   0  0  0  0  0  0  0  0  0  0  0  0
   10.0330   -5.2710   -1.1740 N   0  0  0  0  0  0  0  0  0  0  0  0
    1.8450   -8.5040   -0.4810 N   0  0  0  0  0  0  0  0  0  0  0  0
   11.8930   -4.3880    0.1930 C   0  0  0  0  0  0  0  0  0  0  0  0
    7.6150   -5.2340   -1.0600 C   0  0  0  0  0  0  0  0  0  0  0  0
    6.5070   -4.8480   -0.2810 C   0  0  0  0  0  0  0  0  0  0  0  0
    5.5010   -5.7710   -0.4350 C   0  0  0  0  0  0  0  0  0  0  0  0
   11.4090   -4.7210   -1.2220 C   0  0  0  0  0  0  0  0  0  0  0  0
    7.2240   -6.4010   -1.6790 C   0  0  0  0  0  0  0  0  0  0  0  0
   13.9590   -4.2000    1.4680 C   0  0  0  0  0  0  0  0  0  0  0  0
   13.4160   -2.5410   -0.2220 C   0  0  0  0  0  0  0  0  0  0  0  0
    8.8840   -4.5390   -1.1460 C   0  0  0  0  0  0  0  0  0  0  0  0
    3.1760   -6.7140    0.0350 C   0  0  0  0  0  0  0  0  0  0  0  0
    4.1930   -5.8040    0.1430 C   0  0  0  0  0  0  0  0  0  0  0  0
    1.9000   -6.5920    0.6960 C   0  0  0  0  0  0  0  0  0  0  0  0
    6.4900   -3.5940    0.5800 C   0  0  0  0  0  0  0  0  0  0  0  0
    1.1170   -7.6940    0.3620 C   0  0  0  0  0  0  0  0  0  0  0  0
    7.9740   -7.2700   -2.6760 C   0  0  0  0  0  0  0  0  0  0  0  0
    3.0660   -7.9540   -0.6970 C   0  0  0  0  0  0  0  0  0  0  0  0
   14.4280   -5.6510    1.5330 C   0  0  0  0  0  0  0  0  0  0  0  0
   14.7660   -2.3070   -0.8960 C   0  0  0  0  0  0  0  0  0  0  0  0
    1.3740   -5.6230    1.5470 C   0  0  0  0  0  0  0  0  0  0  0  0
   -0.1730   -7.8640    0.8480 C   0  0  0  0  0  0  0  0  0  0  0  0
    0.0890   -5.8030    2.0230 C   0  0  0  0  0  0  0  0  0  0  0  0
   -0.6950   -6.9000    1.6930 C   0  0  0  0  0  0  0  0  0  0  0  0
   11.7920   -5.2760    0.7910 H   0  0  0  0  0  0  0  0  0  0  0  0
   11.2740   -3.6180    0.6220 H   0  0  0  0  0  0  0  0  0  0  0  0
   12.0670   -5.4460   -1.6660 H   0  0  0  0  0  0  0  0  0  0  0  0
   11.4110   -3.8330   -1.8300 H   0  0  0  0  0  0  0  0  0  0  0  0
    5.4230   -7.5370   -1.6000 H   0  0  0  0  0  0  0  0  0  0  0  0
   14.8230   -3.5670    1.5730 H   0  0  0  0  0  0  0  0  0  0  0  0
   13.2850   -3.9770    2.2790 H   0  0  0  0  0  0  0  0  0  0  0  0
   13.3000   -1.8990    0.6360 H   0  0  0  0  0  0  0  0  0  0  0  0
   12.6440   -2.2890   -0.9280 H   0  0  0  0  0  0  0  0  0  0  0  0
    3.9990   -4.9530    0.7650 H   0  0  0  0  0  0  0  0  0  0  0  0
    9.9360   -6.2790   -1.0560 H   0  0  0  0  0  0  0  0  0  0  0  0
    6.4710   -2.7250   -0.0530 H   0  0  0  0  0  0  0  0  0  0  0  0
    7.3770   -3.5560    1.1860 H   0  0  0  0  0  0  0  0  0  0  0  0
    5.6370   -3.5680    1.2300 H   0  0  0  0  0  0  0  0  0  0  0  0
    7.3290   -7.5210   -3.4990 H   0  0  0  0  0  0  0  0  0  0  0  0
    8.2980   -8.1800   -2.2020 H   0  0  0  0  0  0  0  0  0  0  0  0
    8.8300   -6.7550   -3.0720 H   0  0  0  0  0  0  0  0  0  0  0  0
   15.0810   -5.8590    0.7050 H   0  0  0  0  0  0  0  0  0  0  0  0
   13.5970   -6.3300    1.5110 H   0  0  0  0  0  0  0  0  0  0  0  0
   14.9720   -5.8130    2.4460 H   0  0  0  0  0  0  0  0  0  0  0  0
   14.8690   -2.9640   -1.7410 H   0  0  0  0  0  0  0  0  0  0  0  0
   15.5760   -2.4790   -0.2130 H   0  0  0  0  0  0  0  0  0  0  0  0
   14.8240   -1.2920   -1.2430 H   0  0  0  0  0  0  0  0  0  0  0  0
    1.5610   -9.3860   -0.9080 H   0  0  0  0  0  0  0  0  0  0  0  0
    1.9410   -4.7570    1.8310 H   0  0  0  0  0  0  0  0  0  0  0  0
   -0.7480   -8.7280    0.5690 H   0  0  0  0  0  0  0  0  0  0  0  0
   -1.6890   -6.9870    2.0950 H   0  0  0  0  0  0  0  0  0  0  0  0
  1 28  1  0  0  0  0
  2 16  2  0  0  0  0
  3 23  2  0  0  0  0
  4  8  1  0  0  0  0
  4 14  1  0  0  0  0
  4 15  1  0  0  0  0
  5 11  1  0  0  0  0
  5 13  1  0  0  0  0
  5 34  1  0  0  0  0
  6 12  1  0  0  0  0
  6 16  1  0  0  0  0
  6 40  1  0  0  0  0
  7 21  1  0  0  0  0
  7 23  1  0  0  0  0
  7 53  1  0  0  0  0
  8 12  1  0  0  0  0
  8 30  1  0  0  0  0
  8 31  1  0  0  0  0
  9 10  1  0  0  0  0
  9 13  2  0  0  0  0
  9 16  1  0  0  0  0
 10 11  2  0  0  0  0
 10 20  1  0  0  0  0
 11 18  1  0  0  0  0
 12 32  1  0  0  0  0
 12 33  1  0  0  0  0
 13 22  1  0  0  0  0
 14 24  1  0  0  0  0
 14 35  1  0  0  0  0
 14 36  1  0  0  0  0
 15 25  1  0  0  0  0
 15 37  1  0  0  0  0
 15 38  1  0  0  0  0
 17 18  2  0  0  0  0
 17 19  1  0  0  0  0
 17 23  1  0  0  0  0
 18 39  1  0  0  0  0
 19 21  1  0  0  0  0
 19 26  2  0  0  0  0
 20 41  1  0  0  0  0
 20 42  1  0  0  0  0
 20 43  1  0  0  0  0
 21 27  2  0  0  0  0
 22 44  1  0  0  0  0
 22 45  1  0  0  0  0
 22 46  1  0  0  0  0
 24 47  1  0  0  0  0
 24 48  1  0  0  0  0
 24 49  1  0  0  0  0
 25 50  1  0  0  0  0
 25 51  1  0  0  0  0
 25 52  1  0  0  0  0
 26 28  1  0  0  0  0
 26 54  1  0  0  0  0
 27 29  1  0  0  0  0
 27 55  1  0  0  0  0
 28 29  2  0  0  0  0
 29 56  1  0  0  0  0
M  END
$$$$
Telbivudine
  MOE2024           3D

 31 32  0  0  1  0  0  0  0  0999 V2000
   -0.3060    0.7150   -0.3030 O   0  0  0  0  0  0  0  0  0  0  0  0
    1.6430   -1.8490   -0.4770 O   0  0  0  0  0  0  0  0  0  0  0  0
    0.7970    1.4690    2.0950 O   0  0  0  0  0  0  0  0  0  0  0  0
   -3.0110   -2.1840   -1.0950 O   0  0  0  0  0  0  0  0  0  0  0  0
   -6.3650    0.1920    0.5430 O   0  0  0  0  0  0  0  0  0  0  0  0
   -2.4570   -0.2140   -0.1010 N   0  0  0  0  0  0  0  0  0  0  0  0
   -4.6800   -0.9750   -0.2790 N   0  0  0  0  0  0  0  0  0  0  0  0
    1.0750   -1.0260    0.4850 C   0  0  2  0  0  0  0  0  0  0  0  0
   -1.0280   -0.4700   -0.3950 C   0  0  2  0  0  0  0  0  0  0  0  0
   -0.3850   -1.3940    0.6230 C   0  0  0  0  0  0  0  0  0  0  0  0
    1.0420    0.4180   -0.0450 C   0  0  2  0  0  0  0  0  0  0  0  0
    1.5980    1.4340    0.9620 C   0  0  0  0  0  0  0  0  0  0  0  0
   -2.9070    0.9290    0.5610 C   0  0  0  0  0  0  0  0  0  0  0  0
   -3.3590   -1.1710   -0.5240 C   0  0  0  0  0  0  0  0  0  0  0  0
   -4.2280    1.1100    0.8010 C   0  0  0  0  0  0  0  0  0  0  0  0
   -5.1660    0.1170    0.3670 C   0  0  0  0  0  0  0  0  0  0  0  0
   -4.7520    2.3450    1.5210 C   0  0  0  0  0  0  0  0  0  0  0  0
    1.6310   -1.1290    1.4020 H   0  0  0  0  0  0  0  0  0  0  0  0
   -0.9060   -0.8550   -1.3950 H   0  0  0  0  0  0  0  0  0  0  0  0
   -0.7330   -1.1370    1.6070 H   0  0  0  0  0  0  0  0  0  0  0  0
   -0.5890   -2.4290    0.4180 H   0  0  0  0  0  0  0  0  0  0  0  0
    1.5840    0.4880   -0.9730 H   0  0  0  0  0  0  0  0  0  0  0  0
    1.6140    2.4170    0.5260 H   0  0  0  0  0  0  0  0  0  0  0  0
    2.5980    1.1690    1.2620 H   0  0  0  0  0  0  0  0  0  0  0  0
   -2.1710    1.6540    0.8630 H   0  0  0  0  0  0  0  0  0  0  0  0
    1.6370   -2.7800   -0.1780 H   0  0  0  0  0  0  0  0  0  0  0  0
   -5.3360   -1.6790   -0.5930 H   0  0  0  0  0  0  0  0  0  0  0  0
   -0.1300    1.5940    1.8070 H   0  0  0  0  0  0  0  0  0  0  0  0
   -3.9500    3.0090    1.7880 H   0  0  0  0  0  0  0  0  0  0  0  0
   -5.4390    2.8740    0.8840 H   0  0  0  0  0  0  0  0  0  0  0  0
   -5.2730    2.0540    2.4160 H   0  0  0  0  0  0  0  0  0  0  0  0
  1  9  1  0  0  0  0
  1 11  1  0  0  0  0
  2  8  1  0  0  0  0
  2 26  1  0  0  0  0
  3 12  1  0  0  0  0
  3 28  1  0  0  0  0
  4 14  2  0  0  0  0
  5 16  2  0  0  0  0
  6  9  1  0  0  0  0
  6 13  1  0  0  0  0
  6 14  1  0  0  0  0
  7 14  1  0  0  0  0
  7 16  1  0  0  0  0
  7 27  1  0  0  0  0
  8 10  1  0  0  0  0
  8 11  1  0  0  0  0
  8 18  1  0  0  0  0
  9 10  1  0  0  0  0
  9 19  1  0  0  0  0
 10 20  1  0  0  0  0
 10 21  1  0  0  0  0
 11 12  1  0  0  0  0
 11 22  1  0  0  0  0
 12 23  1  0  0  0  0
 12 24  1  0  0  0  0
 13 15  2  0  0  0  0
 13 25  1  0  0  0  0
 15 16  1  0  0  0  0
 15 17  1  0  0  0  0
 17 29  1  0  0  0  0
 17 30  1  0  0  0  0
 17 31  1  0  0  0  0
M  END
$$$$
Voriconazole
  MOE2024           3D

 39 41  0  0  1  0  0  0  0  0999 V2000
    3.5360   -2.0430    1.4810 F   0  0  0  0  0  0  0  0  0  0  0  0
    0.7550   -6.1040    0.7260 F   0  0  0  0  0  0  0  0  0  0  0  0
    5.8530   -5.4920   -0.5130 F   0  0  0  0  0  0  0  0  0  0  0  0
    0.0930   -1.5000   -0.1990 O   0  0  0  0  0  0  0  0  0  0  0  0
    2.5310   -0.1860   -0.7050 N   0  0  0  0  0  0  0  0  0  0  0  0
   -1.6480   -3.5840    0.0620 N   0  0  0  0  0  0  0  0  0  0  0  0
    3.7860    0.1150   -1.0220 N   0  0  0  0  0  0  0  0  0  0  0  0
    2.9800    1.6150    0.4220 N   0  0  0  0  0  0  0  0  0  0  0  0
   -2.5260   -5.7320   -0.4970 N   0  0  0  0  0  0  0  0  0  0  0  0
    1.2310   -2.3030   -0.1840 C   0  0  1  0  0  0  0  0  0  0  0  0
    0.6070   -3.2150    0.9820 C   0  0  1  0  0  0  0  0  0  0  0  0
    1.8350   -1.3510   -1.2940 C   0  0  0  0  0  0  0  0  0  0  0  0
    2.5040   -3.1840   -0.2680 C   0  0  0  0  0  0  0  0  0  0  0  0
    0.1320   -2.4660    2.2600 C   0  0  0  0  0  0  0  0  0  0  0  0
   -0.5060   -4.1390    0.4470 C   0  0  0  0  0  0  0  0  0  0  0  0
    3.5990   -2.9770    0.5710 C   0  0  0  0  0  0  0  0  0  0  0  0
    2.5800   -4.2270   -1.1920 C   0  0  0  0  0  0  0  0  0  0  0  0
   -0.3540   -5.5110    0.3640 C   0  0  0  0  0  0  0  0  0  0  0  0
    4.7490   -3.7370    0.5090 C   0  0  0  0  0  0  0  0  0  0  0  0
    3.7210   -5.0120   -1.2740 C   0  0  0  0  0  0  0  0  0  0  0  0
    2.0820    0.7360    0.1540 C   0  0  0  0  0  0  0  0  0  0  0  0
    4.7830   -4.7500   -0.4270 C   0  0  0  0  0  0  0  0  0  0  0  0
   -1.3890   -6.2780   -0.1140 C   0  0  0  0  0  0  0  0  0  0  0  0
   -2.5880   -4.4130   -0.3820 C   0  0  0  0  0  0  0  0  0  0  0  0
    4.0020    1.1810   -0.3250 C   0  0  0  0  0  0  0  0  0  0  0  0
    1.3270   -3.8840    1.4230 H   0  0  0  0  0  0  0  0  0  0  0  0
    1.0970   -0.9690   -1.9820 H   0  0  0  0  0  0  0  0  0  0  0  0
    2.5450   -1.8170   -1.9570 H   0  0  0  0  0  0  0  0  0  0  0  0
   -0.0870   -3.1750    3.0390 H   0  0  0  0  0  0  0  0  0  0  0  0
    0.9080   -1.8080    2.6100 H   0  0  0  0  0  0  0  0  0  0  0  0
   -0.7580   -1.8840    2.0940 H   0  0  0  0  0  0  0  0  0  0  0  0
   -0.7000   -2.0830   -0.0710 H   0  0  0  0  0  0  0  0  0  0  0  0
    1.7540   -4.4320   -1.8540 H   0  0  0  0  0  0  0  0  0  0  0  0
    5.5810   -3.5500    1.1620 H   0  0  0  0  0  0  0  0  0  0  0  0
    3.7920   -5.8170   -1.9850 H   0  0  0  0  0  0  0  0  0  0  0  0
    1.0850    0.7230    0.5570 H   0  0  0  0  0  0  0  0  0  0  0  0
   -1.2810   -7.3470   -0.1810 H   0  0  0  0  0  0  0  0  0  0  0  0
   -3.5170   -3.9570   -0.6870 H   0  0  0  0  0  0  0  0  0  0  0  0
    4.9410    1.7100   -0.3300 H   0  0  0  0  0  0  0  0  0  0  0  0
  1 16  1  0  0  0  0
  2 18  1  0  0  0  0
  3 22  1  0  0  0  0
  4 10  1  0  0  0  0
  4 32  1  0  0  0  0
  5  7  1  0  0  0  0
  5 12  1  0  0  0  0
  5 21  1  0  0  0  0
  6 15  1  0  0  0  0
  6 24  2  0  0  0  0
  7 25  2  0  0  0  0
  8 21  2  0  0  0  0
  8 25  1  0  0  0  0
  9 23  2  0  0  0  0
  9 24  1  0  0  0  0
 10 11  1  0  0  0  0
 10 12  1  0  0  0  0
 10 13  1  0  0  0  0
 11 14  1  0  0  0  0
 11 15  1  0  0  0  0
 11 26  1  0  0  0  0
 12 27  1  0  0  0  0
 12 28  1  0  0  0  0
 13 16  1  0  0  0  0
 13 17  2  0  0  0  0
 14 29  1  0  0  0  0
 14 30  1  0  0  0  0
 14 31  1  0  0  0  0
 15 18  2  0  0  0  0
 16 19  2  0  0  0  0
 17 20  1  0  0  0  0
 17 33  1  0  0  0  0
 18 23  1  0  0  0  0
 19 22  1  0  0  0  0
 19 34  1  0  0  0  0
 20 22  2  0  0  0  0
 20 35  1  0  0  0  0
 21 36  1  0  0  0  0
 23 37  1  0  0  0  0
 24 38  1  0  0  0  0
 25 39  1  0  0  0  0
M  END
$$$$
Sitagliptin
  MOE2024           3D

 43 45  0  0  1  0  0  0  0  0999 V2000
    5.1170    0.9850    0.7950 N   0  0  0  0  0  0  0  0  0  0  0  0
    4.3970    2.1770    0.3780 C   0  0  1  0  0  0  0  0  0  0  0  0
    2.9210    2.0670    0.7900 C   0  0  0  0  0  0  0  0  0  0  0  0
    2.1410    0.9490    0.1080 C   0  0  0  0  0  0  0  0  0  0  0  0
    2.7300    0.1800   -0.6140 O   0  0  0  0  0  0  0  0  0  0  0  0
    0.7920    0.8170    0.3190 N   0  0  0  0  0  0  0  0  0  0  0  0
   -0.0300    1.6280    1.2710 C   0  0  0  0  0  0  0  0  0  0  0  0
   -1.2220    2.2710    0.5480 C   0  0  0  0  0  0  0  0  0  0  0  0
   -1.9340    1.2510   -0.2550 N   0  0  0  0  0  0  0  0  0  0  0  0
   -1.3930    0.1110   -0.6840 C   0  0  0  0  0  0  0  0  0  0  0  0
    0.0480   -0.2820   -0.3890 C   0  0  0  0  0  0  0  0  0  0  0  0
   -2.2360   -0.5910   -1.3570 N   0  0  0  0  0  0  0  0  0  0  0  0
   -3.3780    0.0940   -1.3880 N   0  0  0  0  0  0  0  0  0  0  0  0
   -3.1870    1.1930   -0.7290 C   0  0  0  0  0  0  0  0  0  0  0  0
   -4.2140    2.3050   -0.4950 C   0  0  0  0  0  0  0  0  0  0  0  0
   -3.7580    3.4850   -0.9050 F   0  0  0  0  0  0  0  0  0  0  0  0
   -5.3800    2.1220   -1.1040 F   0  0  0  0  0  0  0  0  0  0  0  0
   -4.4840    2.4560    0.7980 F   0  0  0  0  0  0  0  0  0  0  0  0
    5.0670    3.4170    0.9900 C   0  0  0  0  0  0  0  0  0  0  0  0
    6.4370    3.6790    0.3690 C   0  0  0  0  0  0  0  0  0  0  0  0
    7.5830    3.1660    0.9660 C   0  0  0  0  0  0  0  0  0  0  0  0
    8.8160    3.4130    0.3850 C   0  0  0  0  0  0  0  0  0  0  0  0
    9.8890    2.9290    0.9590 F   0  0  0  0  0  0  0  0  0  0  0  0
    8.9230    4.1580   -0.7800 C   0  0  0  0  0  0  0  0  0  0  0  0
   10.0950    4.3840   -1.3160 F   0  0  0  0  0  0  0  0  0  0  0  0
    7.8010    4.6760   -1.3970 C   0  0  0  0  0  0  0  0  0  0  0  0
    6.5770    4.4210   -0.8030 C   0  0  0  0  0  0  0  0  0  0  0  0
    5.5100    4.9050   -1.3830 F   0  0  0  0  0  0  0  0  0  0  0  0
    4.7200    0.1990    0.2540 H   0  0  0  0  0  0  0  0  0  0  0  0
    4.9310    0.7830    1.7810 H   0  0  0  0  0  0  0  0  0  0  0  0
    4.4540    2.2540   -0.6970 H   0  0  0  0  0  0  0  0  0  0  0  0
    2.4400    2.9920    0.5330 H   0  0  0  0  0  0  0  0  0  0  0  0
    2.8610    1.9400    1.8540 H   0  0  0  0  0  0  0  0  0  0  0  0
   -0.3960    0.9810    2.0510 H   0  0  0  0  0  0  0  0  0  0  0  0
    0.5550    2.3980    1.7390 H   0  0  0  0  0  0  0  0  0  0  0  0
   -1.8930    2.7020    1.2680 H   0  0  0  0  0  0  0  0  0  0  0  0
   -0.8720    3.0460   -0.1100 H   0  0  0  0  0  0  0  0  0  0  0  0
    0.0530   -1.1650    0.2250 H   0  0  0  0  0  0  0  0  0  0  0  0
    0.5310   -0.5230   -1.3210 H   0  0  0  0  0  0  0  0  0  0  0  0
    4.4450    4.2780    0.8260 H   0  0  0  0  0  0  0  0  0  0  0  0
    5.1600    3.2920    2.0540 H   0  0  0  0  0  0  0  0  0  0  0  0
    7.5250    2.5730    1.8620 H   0  0  0  0  0  0  0  0  0  0  0  0
    7.8750    5.2510   -2.3010 H   0  0  0  0  0  0  0  0  0  0  0  0
  1  2  1  0  0  0  0
  1 29  1  0  0  0  0
  1 30  1  0  0  0  0
  2  3  1  0  0  0  0
  2 19  1  0  0  0  0
  2 31  1  0  0  0  0
  3  4  1  0  0  0  0
  3 32  1  0  0  0  0
  3 33  1  0  0  0  0
  4  5  2  0  0  0  0
  4  6  1  0  0  0  0
  6  7  1  0  0  0  0
  6 11  1  0  0  0  0
  7  8  1  0  0  0  0
  7 34  1  0  0  0  0
  7 35  1  0  0  0  0
  8  9  1  0  0  0  0
  8 36  1  0  0  0  0
  8 37  1  0  0  0  0
  9 10  1  0  0  0  0
  9 14  1  0  0  0  0
 10 11  1  0  0  0  0
 10 12  2  0  0  0  0
 11 38  1  0  0  0  0
 11 39  1  0  0  0  0
 12 13  1  0  0  0  0
 13 14  2  0  0  0  0
 14 15  1  0  0  0  0
 15 16  1  0  0  0  0
 15 17  1  0  0  0  0
 15 18  1  0  0  0  0
 19 20  1  0  0  0  0
 19 40  1  0  0  0  0
 19 41  1  0  0  0  0
 20 21  1  0  0  0  0
 20 27  2  0  0  0  0
 21 22  2  0  0  0  0
 21 42  1  0  0  0  0
 22 23  1  0  0  0  0
 22 24  1  0  0  0  0
 24 25  1  0  0  0  0
 24 26  2  0  0  0  0
 26 27  1  0  0  0  0
 26 43  1  0  0  0  0
 27 28  1  0  0  0  0
M  END
$$$$
Dasatinib
  MOE2024           3D

 59 62  0  0  0  0  0  0  0  0999 V2000
   -9.0520   -8.5120   -0.2810 Cl  0  0  0  0  0  0  0  0  0  0  0  0
   -4.8070   -4.4230   -1.9180 S   0  0  0  0  0  0  0  0  0  0  0  0
    4.4240   -9.8940    5.4710 O   0  0  0  0  0  0  0  0  0  0  0  0
   -7.7280   -4.2880   -1.3510 O   0  0  0  0  0  0  0  0  0  0  0  0
    2.6220   -8.6610    2.5030 N   0  0  0  0  0  0  0  0  0  0  0  0
    1.4540   -6.9310    0.4310 N   0  0  0  0  0  0  0  0  0  0  0  0
    1.7710   -5.7100   -1.5120 N   0  0  0  0  0  0  0  0  0  0  0  0
   -0.0390   -4.6960   -2.6550 N   0  0  0  0  0  0  0  0  0  0  0  0
   -2.1750   -4.8100   -1.9530 N   0  0  0  0  0  0  0  0  0  0  0  0
   -3.5250   -5.9260   -0.3070 N   0  0  0  0  0  0  0  0  0  0  0  0
   -7.8900   -5.8550    0.2400 N   0  0  0  0  0  0  0  0  0  0  0  0
    1.1770   -8.6950    2.1780 C   0  0  0  0  0  0  0  0  0  0  0  0
    3.1530   -7.3010    2.2310 C   0  0  0  0  0  0  0  0  0  0  0  0
    0.8910   -8.2810    0.7210 C   0  0  0  0  0  0  0  0  0  0  0  0
    2.9030   -6.8440    0.7800 C   0  0  0  0  0  0  0  0  0  0  0  0
    2.8370   -9.0660    3.9050 C   0  0  0  0  0  0  0  0  0  0  0  0
    0.9360   -6.1730   -0.6000 C   0  0  0  0  0  0  0  0  0  0  0  0
    4.2910   -9.4810    4.1510 C   0  0  0  0  0  0  0  0  0  0  0  0
   -0.4090   -5.9020   -0.6780 C   0  0  0  0  0  0  0  0  0  0  0  0
   -0.8630   -5.1570   -1.7380 C   0  0  0  0  0  0  0  0  0  0  0  0
    1.2310   -5.0040   -2.4820 C   0  0  0  0  0  0  0  0  0  0  0  0
    2.1920   -4.4790   -3.5210 C   0  0  0  0  0  0  0  0  0  0  0  0
   -3.3340   -5.1440   -1.3100 C   0  0  0  0  0  0  0  0  0  0  0  0
   -5.7390   -5.2630   -0.6950 C   0  0  0  0  0  0  0  0  0  0  0  0
   -9.2860   -5.8900    0.4130 C   0  0  0  0  0  0  0  0  0  0  0  0
   -4.8510   -5.9830    0.0280 C   0  0  0  0  0  0  0  0  0  0  0  0
  -10.0360   -4.7820    0.8220 C   0  0  0  0  0  0  0  0  0  0  0  0
   -7.1610   -5.0890   -0.6340 C   0  0  0  0  0  0  0  0  0  0  0  0
   -9.9610   -7.0890    0.1890 C   0  0  0  0  0  0  0  0  0  0  0  0
  -11.4120   -4.8970    0.9610 C   0  0  0  0  0  0  0  0  0  0  0  0
   -9.3950   -3.4340    1.1340 C   0  0  0  0  0  0  0  0  0  0  0  0
  -11.3290   -7.2040    0.3310 C   0  0  0  0  0  0  0  0  0  0  0  0
  -12.0610   -6.0960    0.7160 C   0  0  0  0  0  0  0  0  0  0  0  0
    0.6400   -8.0330    2.8350 H   0  0  0  0  0  0  0  0  0  0  0  0
    0.8040   -9.6930    2.3280 H   0  0  0  0  0  0  0  0  0  0  0  0
    2.6910   -6.5900    2.8940 H   0  0  0  0  0  0  0  0  0  0  0  0
    4.2130   -7.2840    2.4110 H   0  0  0  0  0  0  0  0  0  0  0  0
   -0.1700   -8.2890    0.5520 H   0  0  0  0  0  0  0  0  0  0  0  0
    1.3400   -9.0000    0.0580 H   0  0  0  0  0  0  0  0  0  0  0  0
    3.2410   -5.8290    0.6640 H   0  0  0  0  0  0  0  0  0  0  0  0
    3.4680   -7.4650    0.1060 H   0  0  0  0  0  0  0  0  0  0  0  0
    2.5670   -8.2610    4.5680 H   0  0  0  0  0  0  0  0  0  0  0  0
    2.2150   -9.9160    4.1270 H   0  0  0  0  0  0  0  0  0  0  0  0
    4.5530  -10.3040    3.5100 H   0  0  0  0  0  0  0  0  0  0  0  0
    4.9620   -8.6560    3.9910 H   0  0  0  0  0  0  0  0  0  0  0  0
   -1.0670   -6.2610    0.0820 H   0  0  0  0  0  0  0  0  0  0  0  0
    5.3330  -10.2100    5.6420 H   0  0  0  0  0  0  0  0  0  0  0  0
   -2.2700   -4.2040   -2.7640 H   0  0  0  0  0  0  0  0  0  0  0  0
    2.7160   -3.6320   -3.1230 H   0  0  0  0  0  0  0  0  0  0  0  0
    2.9010   -5.2440   -3.7780 H   0  0  0  0  0  0  0  0  0  0  0  0
    1.6630   -4.1830   -4.4080 H   0  0  0  0  0  0  0  0  0  0  0  0
   -5.1160   -6.6070    0.8650 H   0  0  0  0  0  0  0  0  0  0  0  0
   -7.4210   -6.7100    0.5330 H   0  0  0  0  0  0  0  0  0  0  0  0
  -11.9950   -4.0430    1.2630 H   0  0  0  0  0  0  0  0  0  0  0  0
   -9.2740   -2.8700    0.2270 H   0  0  0  0  0  0  0  0  0  0  0  0
   -8.4330   -3.5650    1.5950 H   0  0  0  0  0  0  0  0  0  0  0  0
  -10.0110   -2.8660    1.8070 H   0  0  0  0  0  0  0  0  0  0  0  0
  -11.8130   -8.1450    0.1420 H   0  0  0  0  0  0  0  0  0  0  0  0
  -13.1300   -6.1640    0.8280 H   0  0  0  0  0  0  0  0  0  0  0  0
  1 29  1  0  0  0  0
  2 23  1  0  0  0  0
  2 24  1  0  0  0  0
  3 18  1  0  0  0  0
  3 47  1  0  0  0  0
  4 28  2  0  0  0  0
  5 12  1  0  0  0  0
  5 13  1  0  0  0  0
  5 16  1  0  0  0  0
  6 14  1  0  0  0  0
  6 15  1  0  0  0  0
  6 17  1  0  0  0  0
  7 17  1  0  0  0  0
  7 21  2  0  0  0  0
  8 20  2  0  0  0  0
  8 21  1  0  0  0  0
  9 20  1  0  0  0  0
  9 23  1  0  0  0  0
  9 48  1  0  0  0  0
 10 23  2  0  0  0  0
 10 26  1  0  0  0  0
 11 25  1  0  0  0  0
 11 28  1  0  0  0  0
 11 53  1  0  0  0  0
 12 14  1  0  0  0  0
 12 34  1  0  0  0  0
 12 35  1  0  0  0  0
 13 15  1  0  0  0  0
 13 36  1  0  0  0  0
 13 37  1  0  0  0  0
 14 38  1  0  0  0  0
 14 39  1  0  0  0  0
 15 40  1  0  0  0  0
 15 41  1  0  0  0  0
 16 18  1  0  0  0  0
 16 42  1  0  0  0  0
 16 43  1  0  0  0  0
 17 19  2  0  0  0  0
 18 44  1  0  0  0  0
 18 45  1  0  0  0  0
 19 20  1  0  0  0  0
 19 46  1  0  0  0  0
 21 22  1  0  0  0  0
 22 49  1  0  0  0  0
 22 50  1  0  0  0  0
 22 51  1  0  0  0  0
 24 26  2  0  0  0  0
 24 28  1  0  0  0  0
 25 27  2  0  0  0  0
 25 29  1  0  0  0  0
 26 52  1  0  0  0  0
 27 30  1  0  0  0  0
 27 31  1  0  0  0  0
 29 32  2  0  0  0  0
 30 33  2  0  0  0  0
 30 54  1  0  0  0  0
 31 55  1  0  0  0  0
 31 56  1  0  0  0  0
 31 57  1  0  0  0  0
 32 33  1  0  0  0  0
 32 58  1  0  0  0  0
 33 59  1  0  0  0  0
M  END
$$$$
Pentobarbital
  MOE2024           3D

 34 34  0  0  1  0  0  0  0  0999 V2000
    9.3170   -3.0590   -0.8540 C   0  0  0  0  0  0  0  0  0  0  0  0
    8.0150   -3.7600   -0.4570 C   0  0  0  0  0  0  0  0  0  0  0  0
    6.8630   -2.7500   -0.3270 C   0  0  0  0  0  0  0  0  0  0  0  0
    5.5560   -3.3510    0.2560 C   0  0  2  0  0  0  0  0  0  0  0  0
    5.0590   -4.5120   -0.6380 C   0  0  0  0  0  0  0  0  0  0  0  0
    4.4140   -2.3060    0.5390 C   0  0  0  0  0  0  0  0  0  0  0  0
    3.2940   -3.0310    1.3170 C   0  0  0  0  0  0  0  0  0  0  0  0
    3.5060   -3.4850    2.4120 O   0  0  0  0  0  0  0  0  0  0  0  0
    2.0590   -3.1800    0.7800 N   0  0  0  0  0  0  0  0  0  0  0  0
    1.6750   -2.7210   -0.4250 C   0  0  0  0  0  0  0  0  0  0  0  0
    0.5580   -2.9160   -0.8350 O   0  0  0  0  0  0  0  0  0  0  0  0
    2.5690   -2.0300   -1.1570 N   0  0  0  0  0  0  0  0  0  0  0  0
    3.8390   -1.7450   -0.7810 C   0  0  0  0  0  0  0  0  0  0  0  0
    4.4990   -1.0330   -1.4930 O   0  0  0  0  0  0  0  0  0  0  0  0
    4.9270   -1.1210    1.4140 C   0  0  0  0  0  0  0  0  0  0  0  0
    3.8330   -0.1410    1.8760 C   0  0  0  0  0  0  0  0  0  0  0  0
   10.1090   -3.7810   -0.9540 H   0  0  0  0  0  0  0  0  0  0  0  0
    9.6040   -2.3410   -0.1060 H   0  0  0  0  0  0  0  0  0  0  0  0
    9.1980   -2.5500   -1.7950 H   0  0  0  0  0  0  0  0  0  0  0  0
    8.1610   -4.2700    0.4800 H   0  0  0  0  0  0  0  0  0  0  0  0
    7.7850   -4.4940   -1.2090 H   0  0  0  0  0  0  0  0  0  0  0  0
    7.2130   -1.9630    0.3150 H   0  0  0  0  0  0  0  0  0  0  0  0
    6.6750   -2.3190   -1.2950 H   0  0  0  0  0  0  0  0  0  0  0  0
    5.8220   -3.7820    1.2080 H   0  0  0  0  0  0  0  0  0  0  0  0
    4.9080   -4.1800   -1.6500 H   0  0  0  0  0  0  0  0  0  0  0  0
    4.1420   -4.9350   -0.2720 H   0  0  0  0  0  0  0  0  0  0  0  0
    5.7770   -5.3120   -0.6510 H   0  0  0  0  0  0  0  0  0  0  0  0
    1.3620   -3.6780    1.3280 H   0  0  0  0  0  0  0  0  0  0  0  0
    2.2450   -1.6520   -2.0430 H   0  0  0  0  0  0  0  0  0  0  0  0
    5.6500   -0.5480    0.8610 H   0  0  0  0  0  0  0  0  0  0  0  0
    5.4230   -1.5150    2.2860 H   0  0  0  0  0  0  0  0  0  0  0  0
    3.3190    0.2910    1.0350 H   0  0  0  0  0  0  0  0  0  0  0  0
    3.1170   -0.6250    2.5170 H   0  0  0  0  0  0  0  0  0  0  0  0
    4.2830    0.6600    2.4350 H   0  0  0  0  0  0  0  0  0  0  0  0
  1  2  1  0  0  0  0
  1 17  1  0  0  0  0
  1 18  1  0  0  0  0
  1 19  1  0  0  0  0
  2  3  1  0  0  0  0
  2 20  1  0  0  0  0
  2 21  1  0  0  0  0
  3  4  1  0  0  0  0
  3 22  1  0  0  0  0
  3 23  1  0  0  0  0
  4  5  1  0  0  0  0
  4  6  1  0  0  0  0
  4 24  1  0  0  0  0
  5 25  1  0  0  0  0
  5 26  1  0  0  0  0
  5 27  1  0  0  0  0
  6  7  1  0  0  0  0
  6 13  1  0  0  0  0
  6 15  1  0  0  0  0
  7  8  2  0  0  0  0
  7  9  1  0  0  0  0
  9 10  1  0  0  0  0
  9 28  1  0  0  0  0
 10 11  2  0  0  0  0
 10 12  1  0  0  0  0
 12 13  1  0  0  0  0
 12 29  1  0  0  0  0
 13 14  2  0  0  0  0
 15 16  1  0  0  0  0
 15 30  1  0  0  0  0
 15 31  1  0  0  0  0
 16 32  1  0  0  0  0
 16 33  1  0  0  0  0
 16 34  1  0  0  0  0
M  END
$$$$
