amiodarone
  MOE2018           2D

 60 62  0  0  0  0  0  0  0  0999 V2000
    7.1250   -0.9700    0.0000 I   0  0  0  0  0  0  0  0  0  0  0  0
    4.5090    3.5200    0.0000 I   0  0  0  0  0  0  0  0  0  0  0  0
   -1.7490    0.2500    0.0000 O   0  0  0  0  0  0  0  0  0  0  0  0
    7.1130    2.0300    0.0000 O   0  0  0  0  0  0  0  0  0  0  0  0
    1.9340   -2.4900    0.0000 O   0  0  0  0  0  0  0  0  0  0  0  0
   11.0130    1.2950    0.0000 N   0  0  0  0  0  0  0  0  0  0  0  0
   -1.0470   -2.3290    0.0000 C   0  0  0  0  0  0  0  0  0  0  0  0
   -0.7410   -0.8610    0.0000 C   0  0  0  0  0  0  0  0  0  0  0  0
    0.6270   -0.2450    0.0000 C   0  0  0  0  0  0  0  0  0  0  0  0
   -2.4720   -2.7980    0.0000 C   0  0  0  0  0  0  0  0  0  0  0  0
    0.4640    1.2460    0.0000 C   0  0  0  0  0  0  0  0  0  0  0  0
   -1.0040    1.5520    0.0000 C   0  0  0  0  0  0  0  0  0  0  0  0
    9.7110    2.0400    0.0000 C   0  0  0  0  0  0  0  0  0  0  0  0
   -2.7780   -4.2670    0.0000 C   0  0  0  0  0  0  0  0  0  0  0  0
    1.9290   -0.9900    0.0000 C   0  0  0  0  0  0  0  0  0  0  0  0
   11.0190   -0.2050    0.0000 C   0  0  0  0  0  0  0  0  0  0  0  0
   12.3090    2.0500    0.0000 C   0  0  0  0  0  0  0  0  0  0  0  0
    8.4150    1.2850    0.0000 C   0  0  0  0  0  0  0  0  0  0  0  0
    1.4630    2.3650    0.0000 C   0  0  0  0  0  0  0  0  0  0  0  0
    3.2250   -0.2350    0.0000 C   0  0  0  0  0  0  0  0  0  0  0  0
   -1.4740    2.9770    0.0000 C   0  0  0  0  0  0  0  0  0  0  0  0
   -4.2030   -4.7360    0.0000 C   0  0  0  0  0  0  0  0  0  0  0  0
   12.3210   -0.9500    0.0000 C   0  0  0  0  0  0  0  0  0  0  0  0
   12.3030    3.5500    0.0000 C   0  0  0  0  0  0  0  0  0  0  0  0
    5.8170    1.2750    0.0000 C   0  0  0  0  0  0  0  0  0  0  0  0
    0.9940    3.7890    0.0000 C   0  0  0  0  0  0  0  0  0  0  0  0
   -0.4740    4.0960    0.0000 C   0  0  0  0  0  0  0  0  0  0  0  0
    4.5270   -0.9800    0.0000 C   0  0  0  0  0  0  0  0  0  0  0  0
    3.2190    1.2650    0.0000 C   0  0  0  0  0  0  0  0  0  0  0  0
    5.8230   -0.2250    0.0000 C   0  0  0  0  0  0  0  0  0  0  0  0
    4.5150    2.0200    0.0000 C   0  0  0  0  0  0  0  0  0  0  0  0
    0.1520   -2.3660    0.0000 H   0  0  0  0  0  0  0  0  0  0  0  0
   -0.8760   -3.5170    0.0000 H   0  0  0  0  0  0  0  0  0  0  0  0
   -3.6720   -2.7610    0.0000 H   0  0  0  0  0  0  0  0  0  0  0  0
   -2.6440   -1.6100    0.0000 H   0  0  0  0  0  0  0  0  0  0  0  0
    8.9360    2.9570    0.0000 H   0  0  0  0  0  0  0  0  0  0  0  0
   10.4790    2.9630    0.0000 H   0  0  0  0  0  0  0  0  0  0  0  0
   -2.6070   -5.4540    0.0000 H   0  0  0  0  0  0  0  0  0  0  0  0
   -1.5790   -4.3040    0.0000 H   0  0  0  0  0  0  0  0  0  0  0  0
   10.6130   -1.3340    0.0000 H   0  0  0  0  0  0  0  0  0  0  0  0
    9.8360   -0.0010    0.0000 H   0  0  0  0  0  0  0  0  0  0  0  0
   13.4900    2.2630    0.0000 H   0  0  0  0  0  0  0  0  0  0  0  0
   12.7240    0.9240    0.0000 H   0  0  0  0  0  0  0  0  0  0  0  0
    7.6470    0.3630    0.0000 H   0  0  0  0  0  0  0  0  0  0  0  0
    9.1900    0.3690    0.0000 H   0  0  0  0  0  0  0  0  0  0  0  0
    2.6380    2.1200    0.0000 H   0  0  0  0  0  0  0  0  0  0  0  0
   -2.6480    3.2220    0.0000 H   0  0  0  0  0  0  0  0  0  0  0  0
   -4.5780   -3.5960    0.0000 H   0  0  0  0  0  0  0  0  0  0  0  0
   -5.3430   -5.1110    0.0000 H   0  0  0  0  0  0  0  0  0  0  0  0
   -3.8280   -5.8750    0.0000 H   0  0  0  0  0  0  0  0  0  0  0  0
   11.7250   -1.9910    0.0000 H   0  0  0  0  0  0  0  0  0  0  0  0
   13.3620   -1.5460    0.0000 H   0  0  0  0  0  0  0  0  0  0  0  0
   12.9170    0.0920    0.0000 H   0  0  0  0  0  0  0  0  0  0  0  0
   13.5030    3.5550    0.0000 H   0  0  0  0  0  0  0  0  0  0  0  0
   12.2990    4.7500    0.0000 H   0  0  0  0  0  0  0  0  0  0  0  0
   11.1030    3.5460    0.0000 H   0  0  0  0  0  0  0  0  0  0  0  0
    1.7940    4.6840    0.0000 H   0  0  0  0  0  0  0  0  0  0  0  0
   -0.8490    5.2350    0.0000 H   0  0  0  0  0  0  0  0  0  0  0  0
    4.5310   -2.1800    0.0000 H   0  0  0  0  0  0  0  0  0  0  0  0
    2.1770    1.8610    0.0000 H   0  0  0  0  0  0  0  0  0  0  0  0
  1 30  1  0  0  0  0
  2 31  1  0  0  0  0
  3  8  1  0  0  0  0
  3 12  1  0  0  0  0
  4 18  1  0  0  0  0
  4 25  1  0  0  0  0
  5 15  2  0  0  0  0
  6 13  1  0  0  0  0
  6 16  1  0  0  0  0
  6 17  1  0  0  0  0
  7  8  1  0  0  0  0
  7 10  1  0  0  0  0
  7 32  1  0  0  0  0
  7 33  1  0  0  0  0
  8  9  2  0  0  0  0
  9 11  1  0  0  0  0
  9 15  1  0  0  0  0
 10 14  1  0  0  0  0
 10 34  1  0  0  0  0
 10 35  1  0  0  0  0
 11 12  2  0  0  0  0
 11 19  1  0  0  0  0
 12 21  1  0  0  0  0
 13 18  1  0  0  0  0
 13 36  1  0  0  0  0
 13 37  1  0  0  0  0
 14 22  1  0  0  0  0
 14 38  1  0  0  0  0
 14 39  1  0  0  0  0
 15 20  1  0  0  0  0
 16 23  1  0  0  0  0
 16 40  1  0  0  0  0
 16 41  1  0  0  0  0
 17 24  1  0  0  0  0
 17 42  1  0  0  0  0
 17 43  1  0  0  0  0
 18 44  1  0  0  0  0
 18 45  1  0  0  0  0
 19 26  2  0  0  0  0
 19 46  1  0  0  0  0
 20 28  2  0  0  0  0
 20 29  1  0  0  0  0
 21 27  2  0  0  0  0
 21 47  1  0  0  0  0
 22 48  1  0  0  0  0
 22 49  1  0  0  0  0
 22 50  1  0  0  0  0
 23 51  1  0  0  0  0
 23 52  1  0  0  0  0
 23 53  1  0  0  0  0
 24 54  1  0  0  0  0
 24 55  1  0  0  0  0
 24 56  1  0  0  0  0
 25 30  2  0  0  0  0
 25 31  1  0  0  0  0
 26 27  1  0  0  0  0
 26 57  1  0  0  0  0
 27 58  1  0  0  0  0
 28 30  1  0  0  0  0
 28 59  1  0  0  0  0
 29 31  2  0  0  0  0
 29 60  1  0  0  0  0
M  END
$$$$
astemizole
  MOE2018           2D

 65 69  0  0  0  0  0  0  0  0999 V2000
   -0.0630    2.2040    0.0000 F   0  0  0  0  0  0  0  0  0  0  0  0
   21.8020   -0.6840    0.0000 O   0  0  0  0  0  0  0  0  0  0  0  0
   13.5520    0.6150    0.0000 N   0  0  0  0  0  0  0  0  0  0  0  0
    9.0520    0.6150    0.0000 N   0  0  0  0  0  0  0  0  0  0  0  0
    6.8100    2.0710    0.0000 N   0  0  0  0  0  0  0  0  0  0  0  0
    8.9120    3.2840    0.0000 N   0  0  0  0  0  0  0  0  0  0  0  0
   10.5520    0.6150    0.0000 C   0  0  0  0  0  0  0  0  0  0  0  0
   11.3020   -0.6840    0.0000 C   0  0  0  0  0  0  0  0  0  0  0  0
   11.3020    1.9140    0.0000 C   0  0  0  0  0  0  0  0  0  0  0  0
   12.8020   -0.6840    0.0000 C   0  0  0  0  0  0  0  0  0  0  0  0
   12.8020    1.9140    0.0000 C   0  0  0  0  0  0  0  0  0  0  0  0
   15.0520    0.6150    0.0000 C   0  0  0  0  0  0  0  0  0  0  0  0
   15.8020   -0.6840    0.0000 C   0  0  0  0  0  0  0  0  0  0  0  0
    8.3020    1.9140    0.0000 C   0  0  0  0  0  0  0  0  0  0  0  0
   17.3020   -0.6840    0.0000 C   0  0  0  0  0  0  0  0  0  0  0  0
    6.4980    3.5380    0.0000 C   0  0  0  0  0  0  0  0  0  0  0  0
    5.8060    0.9560    0.0000 C   0  0  0  0  0  0  0  0  0  0  0  0
    7.7970    4.2880    0.0000 C   0  0  0  0  0  0  0  0  0  0  0  0
    5.1990    4.2880    0.0000 C   0  0  0  0  0  0  0  0  0  0  0  0
    4.3390    1.2680    0.0000 C   0  0  0  0  0  0  0  0  0  0  0  0
   18.0520    0.6150    0.0000 C   0  0  0  0  0  0  0  0  0  0  0  0
   18.0520   -1.9830    0.0000 C   0  0  0  0  0  0  0  0  0  0  0  0
    7.7970    5.7880    0.0000 C   0  0  0  0  0  0  0  0  0  0  0  0
    5.1990    5.7880    0.0000 C   0  0  0  0  0  0  0  0  0  0  0  0
    6.4980    6.5380    0.0000 C   0  0  0  0  0  0  0  0  0  0  0  0
   19.5520    0.6150    0.0000 C   0  0  0  0  0  0  0  0  0  0  0  0
   19.5520   -1.9830    0.0000 C   0  0  0  0  0  0  0  0  0  0  0  0
    3.3350    0.1530    0.0000 C   0  0  0  0  0  0  0  0  0  0  0  0
    3.8750    2.6950    0.0000 C   0  0  0  0  0  0  0  0  0  0  0  0
   20.3020   -0.6840    0.0000 C   0  0  0  0  0  0  0  0  0  0  0  0
    1.8680    0.4650    0.0000 C   0  0  0  0  0  0  0  0  0  0  0  0
    2.4080    3.0070    0.0000 C   0  0  0  0  0  0  0  0  0  0  0  0
    1.4050    1.8920    0.0000 C   0  0  0  0  0  0  0  0  0  0  0  0
   22.5520   -1.9830    0.0000 C   0  0  0  0  0  0  0  0  0  0  0  0
    9.9520   -0.4240    0.0000 H   0  0  0  0  0  0  0  0  0  0  0  0
   11.5100   -1.8660    0.0000 H   0  0  0  0  0  0  0  0  0  0  0  0
   10.1740   -1.0940    0.0000 H   0  0  0  0  0  0  0  0  0  0  0  0
   11.5100    3.0960    0.0000 H   0  0  0  0  0  0  0  0  0  0  0  0
   10.1740    2.3250    0.0000 H   0  0  0  0  0  0  0  0  0  0  0  0
   13.9290   -1.0940    0.0000 H   0  0  0  0  0  0  0  0  0  0  0  0
   12.5930   -1.8660    0.0000 H   0  0  0  0  0  0  0  0  0  0  0  0
   13.9290    2.3250    0.0000 H   0  0  0  0  0  0  0  0  0  0  0  0
   12.5930    3.0960    0.0000 H   0  0  0  0  0  0  0  0  0  0  0  0
   16.1790    1.0260    0.0000 H   0  0  0  0  0  0  0  0  0  0  0  0
   14.8430    1.7970    0.0000 H   0  0  0  0  0  0  0  0  0  0  0  0
    8.4520   -0.4240    0.0000 H   0  0  0  0  0  0  0  0  0  0  0  0
   16.0100   -1.8660    0.0000 H   0  0  0  0  0  0  0  0  0  0  0  0
   14.6740   -1.0940    0.0000 H   0  0  0  0  0  0  0  0  0  0  0  0
    5.3570   -0.1560    0.0000 H   0  0  0  0  0  0  0  0  0  0  0  0
    6.8240    0.3200    0.0000 H   0  0  0  0  0  0  0  0  0  0  0  0
    4.1600    3.6880    0.0000 H   0  0  0  0  0  0  0  0  0  0  0  0
   17.4520    1.6540    0.0000 H   0  0  0  0  0  0  0  0  0  0  0  0
   17.4520   -3.0220    0.0000 H   0  0  0  0  0  0  0  0  0  0  0  0
    8.8360    6.3880    0.0000 H   0  0  0  0  0  0  0  0  0  0  0  0
    4.1600    6.3880    0.0000 H   0  0  0  0  0  0  0  0  0  0  0  0
    6.4980    7.7380    0.0000 H   0  0  0  0  0  0  0  0  0  0  0  0
   20.1520    1.6540    0.0000 H   0  0  0  0  0  0  0  0  0  0  0  0
   20.1520   -3.0220    0.0000 H   0  0  0  0  0  0  0  0  0  0  0  0
    3.7060   -0.9880    0.0000 H   0  0  0  0  0  0  0  0  0  0  0  0
    4.6780    3.5860    0.0000 H   0  0  0  0  0  0  0  0  0  0  0  0
    1.0650   -0.4270    0.0000 H   0  0  0  0  0  0  0  0  0  0  0  0
    2.0370    4.1480    0.0000 H   0  0  0  0  0  0  0  0  0  0  0  0
   21.5120   -2.5830    0.0000 H   0  0  0  0  0  0  0  0  0  0  0  0
   23.1520   -3.0220    0.0000 H   0  0  0  0  0  0  0  0  0  0  0  0
   23.5910   -1.3830    0.0000 H   0  0  0  0  0  0  0  0  0  0  0  0
  1 33  1  0  0  0  0
  2 30  1  0  0  0  0
  2 34  1  0  0  0  0
  3 10  1  0  0  0  0
  3 11  1  0  0  0  0
  3 12  1  0  0  0  0
  4  7  1  0  0  0  0
  4 14  1  0  0  0  0
  4 46  1  0  0  0  0
  5 14  1  0  0  0  0
  5 16  1  0  0  0  0
  5 17  1  0  0  0  0
  6 14  2  0  0  0  0
  6 18  1  0  0  0  0
  7  8  1  0  0  0  0
  7  9  1  0  0  0  0
  7 35  1  0  0  0  0
  8 10  1  0  0  0  0
  8 36  1  0  0  0  0
  8 37  1  0  0  0  0
  9 11  1  0  0  0  0
  9 38  1  0  0  0  0
  9 39  1  0  0  0  0
 10 40  1  0  0  0  0
 10 41  1  0  0  0  0
 11 42  1  0  0  0  0
 11 43  1  0  0  0  0
 12 13  1  0  0  0  0
 12 44  1  0  0  0  0
 12 45  1  0  0  0  0
 13 15  1  0  0  0  0
 13 47  1  0  0  0  0
 13 48  1  0  0  0  0
 15 21  2  0  0  0  0
 15 22  1  0  0  0  0
 16 18  2  0  0  0  0
 16 19  1  0  0  0  0
 17 20  1  0  0  0  0
 17 49  1  0  0  0  0
 17 50  1  0  0  0  0
 18 23  1  0  0  0  0
 19 24  2  0  0  0  0
 19 51  1  0  0  0  0
 20 28  2  0  0  0  0
 20 29  1  0  0  0  0
 21 26  1  0  0  0  0
 21 52  1  0  0  0  0
 22 27  2  0  0  0  0
 22 53  1  0  0  0  0
 23 25  2  0  0  0  0
 23 54  1  0  0  0  0
 24 25  1  0  0  0  0
 24 55  1  0  0  0  0
 25 56  1  0  0  0  0
 26 30  2  0  0  0  0
 26 57  1  0  0  0  0
 27 30  1  0  0  0  0
 27 58  1  0  0  0  0
 28 31  1  0  0  0  0
 28 59  1  0  0  0  0
 29 32  2  0  0  0  0
 29 60  1  0  0  0  0
 31 33  2  0  0  0  0
 31 61  1  0  0  0  0
 32 33  1  0  0  0  0
 32 62  1  0  0  0  0
 34 63  1  0  0  0  0
 34 64  1  0  0  0  0
 34 65  1  0  0  0  0
M  END
$$$$
bepridil
  MOE2018           2D

 61 63  0  0  1  0  0  0  0  0999 V2000
    6.2140    1.0160    0.0000 O   0  0  0  0  0  0  0  0  0  0  0  0
    6.2140   -1.9840    0.0000 N   0  0  0  0  0  0  0  0  0  0  0  0
    2.3170   -1.2340    0.0000 N   0  0  0  0  0  0  0  0  0  0  0  0
    4.9150   -1.2340    0.0000 C   0  0  2  0  0  0  0  0  0  0  0  0
    6.3710   -3.4760    0.0000 C   0  0  0  0  0  0  0  0  0  0  0  0
    7.5840   -1.3740    0.0000 C   0  0  0  0  0  0  0  0  0  0  0  0
    7.8380   -3.7880    0.0000 C   0  0  0  0  0  0  0  0  0  0  0  0
    8.5880   -2.4890    0.0000 C   0  0  0  0  0  0  0  0  0  0  0  0
    3.6160   -1.9840    0.0000 C   0  0  0  0  0  0  0  0  0  0  0  0
    4.9150    0.2660    0.0000 C   0  0  0  0  0  0  0  0  0  0  0  0
    2.3170    0.2660    0.0000 C   0  0  0  0  0  0  0  0  0  0  0  0
    1.0180   -1.9840    0.0000 C   0  0  0  0  0  0  0  0  0  0  0  0
    6.2140    2.5160    0.0000 C   0  0  0  0  0  0  0  0  0  0  0  0
    7.5130    3.2660    0.0000 C   0  0  0  0  0  0  0  0  0  0  0  0
    1.0180    1.0160    0.0000 C   0  0  0  0  0  0  0  0  0  0  0  0
   -0.2810   -1.2340    0.0000 C   0  0  0  0  0  0  0  0  0  0  0  0
    1.0180   -3.4840    0.0000 C   0  0  0  0  0  0  0  0  0  0  0  0
    8.8120    2.5160    0.0000 C   0  0  0  0  0  0  0  0  0  0  0  0
    7.5130    4.7660    0.0000 C   0  0  0  0  0  0  0  0  0  0  0  0
   -0.2810    0.2660    0.0000 C   0  0  0  0  0  0  0  0  0  0  0  0
    1.0180    2.5160    0.0000 C   0  0  0  0  0  0  0  0  0  0  0  0
   -1.5800   -1.9840    0.0000 C   0  0  0  0  0  0  0  0  0  0  0  0
   -0.2810   -4.2340    0.0000 C   0  0  0  0  0  0  0  0  0  0  0  0
   -1.5800   -3.4840    0.0000 C   0  0  0  0  0  0  0  0  0  0  0  0
   -1.5800    1.0160    0.0000 C   0  0  0  0  0  0  0  0  0  0  0  0
   -0.2810    3.2660    0.0000 C   0  0  0  0  0  0  0  0  0  0  0  0
   -1.5800    2.5160    0.0000 C   0  0  0  0  0  0  0  0  0  0  0  0
    4.9150   -2.4340    0.0000 H   0  0  0  0  0  0  0  0  0  0  0  0
    6.2450   -4.6690    0.0000 H   0  0  0  0  0  0  0  0  0  0  0  0
    5.1710   -3.4760    0.0000 H   0  0  0  0  0  0  0  0  0  0  0  0
    8.5550   -0.6690    0.0000 H   0  0  0  0  0  0  0  0  0  0  0  0
    6.9840   -0.3350    0.0000 H   0  0  0  0  0  0  0  0  0  0  0  0
    8.9340   -4.2760    0.0000 H   0  0  0  0  0  0  0  0  0  0  0  0
    7.4670   -4.9290    0.0000 H   0  0  0  0  0  0  0  0  0  0  0  0
    9.3910   -1.5970    0.0000 H   0  0  0  0  0  0  0  0  0  0  0  0
    9.5590   -3.1940    0.0000 H   0  0  0  0  0  0  0  0  0  0  0  0
    2.8440   -2.9030    0.0000 H   0  0  0  0  0  0  0  0  0  0  0  0
    4.3870   -2.9030    0.0000 H   0  0  0  0  0  0  0  0  0  0  0  0
    4.5040    1.3930    0.0000 H   0  0  0  0  0  0  0  0  0  0  0  0
    4.3240    0.1620    0.0000 H   0  0  0  0  0  0  0  0  0  0  0  0
    2.7270    1.3930    0.0000 H   0  0  0  0  0  0  0  0  0  0  0  0
    2.9080    0.1620    0.0000 H   0  0  0  0  0  0  0  0  0  0  0  0
    5.8030    3.6430    0.0000 H   0  0  0  0  0  0  0  0  0  0  0  0
    5.0320    2.3070    0.0000 H   0  0  0  0  0  0  0  0  0  0  0  0
    8.5520    3.8660    0.0000 H   0  0  0  0  0  0  0  0  0  0  0  0
   -0.2810   -0.6340    0.0000 H   0  0  0  0  0  0  0  0  0  0  0  0
    2.0570   -4.0840    0.0000 H   0  0  0  0  0  0  0  0  0  0  0  0
    8.2120    1.4770    0.0000 H   0  0  0  0  0  0  0  0  0  0  0  0
    9.8510    1.9160    0.0000 H   0  0  0  0  0  0  0  0  0  0  0  0
    9.4120    3.5550    0.0000 H   0  0  0  0  0  0  0  0  0  0  0  0
    8.7130    4.7660    0.0000 H   0  0  0  0  0  0  0  0  0  0  0  0
    7.5130    5.9660    0.0000 H   0  0  0  0  0  0  0  0  0  0  0  0
    6.3130    4.7660    0.0000 H   0  0  0  0  0  0  0  0  0  0  0  0
   -0.2810   -0.3340    0.0000 H   0  0  0  0  0  0  0  0  0  0  0  0
    2.0570    3.1160    0.0000 H   0  0  0  0  0  0  0  0  0  0  0  0
   -2.6200   -1.3840    0.0000 H   0  0  0  0  0  0  0  0  0  0  0  0
   -0.2810   -5.4340    0.0000 H   0  0  0  0  0  0  0  0  0  0  0  0
   -2.6200   -4.0840    0.0000 H   0  0  0  0  0  0  0  0  0  0  0  0
   -2.6200    0.4160    0.0000 H   0  0  0  0  0  0  0  0  0  0  0  0
   -0.2810    4.4660    0.0000 H   0  0  0  0  0  0  0  0  0  0  0  0
   -2.6200    3.1160    0.0000 H   0  0  0  0  0  0  0  0  0  0  0  0
  1 10  1  0  0  0  0
  1 13  1  0  0  0  0
  2  4  1  0  0  0  0
  2  5  1  0  0  0  0
  2  6  1  0  0  0  0
  3  9  1  0  0  0  0
  3 11  1  0  0  0  0
  3 12  1  0  0  0  0
  4  9  1  6  0  0  0
  4 10  1  0  0  0  0
  4 28  1  1  0  0  0
  5  7  1  0  0  0  0
  5 29  1  0  0  0  0
  5 30  1  0  0  0  0
  6  8  1  0  0  0  0
  6 31  1  0  0  0  0
  6 32  1  0  0  0  0
  7  8  1  0  0  0  0
  7 33  1  0  0  0  0
  7 34  1  0  0  0  0
  8 35  1  0  0  0  0
  8 36  1  0  0  0  0
  9 37  1  0  0  0  0
  9 38  1  0  0  0  0
 10 39  1  0  0  0  0
 10 40  1  0  0  0  0
 11 15  1  0  0  0  0
 11 41  1  0  0  0  0
 11 42  1  0  0  0  0
 12 16  2  0  0  0  0
 12 17  1  0  0  0  0
 13 14  1  0  0  0  0
 13 43  1  0  0  0  0
 13 44  1  0  0  0  0
 14 18  1  0  0  0  0
 14 19  1  0  0  0  0
 14 45  1  0  0  0  0
 15 20  2  0  0  0  0
 15 21  1  0  0  0  0
 16 22  1  0  0  0  0
 16 46  1  0  0  0  0
 17 23  2  0  0  0  0
 17 47  1  0  0  0  0
 18 48  1  0  0  0  0
 18 49  1  0  0  0  0
 18 50  1  0  0  0  0
 19 51  1  0  0  0  0
 19 52  1  0  0  0  0
 19 53  1  0  0  0  0
 20 25  1  0  0  0  0
 20 54  1  0  0  0  0
 21 26  2  0  0  0  0
 21 55  1  0  0  0  0
 22 24  2  0  0  0  0
 22 56  1  0  0  0  0
 23 24  1  0  0  0  0
 23 57  1  0  0  0  0
 24 58  1  0  0  0  0
 25 27  2  0  0  0  0
 25 59  1  0  0  0  0
 26 27  1  0  0  0  0
 26 60  1  0  0  0  0
 27 61  1  0  0  0  0
M  END
$$$$
chlorpromazine
  MOE2018           2D

 40 42  0  0  0  0  0  0  0  0999 V2000
   -0.0360   -5.5050    0.0000 Cl  0  0  0  0  0  0  0  0  0  0  0  0
    2.9640   -0.3090    0.0000 S   0  0  0  0  0  0  0  0  0  0  0  0
    4.4640   -2.9070    0.0000 N   0  0  0  0  0  0  0  0  0  0  0  0
    8.9640   -5.5050    0.0000 N   0  0  0  0  0  0  0  0  0  0  0  0
    5.2140   -4.2060    0.0000 C   0  0  0  0  0  0  0  0  0  0  0  0
    6.7140   -4.2060    0.0000 C   0  0  0  0  0  0  0  0  0  0  0  0
    7.4640   -5.5050    0.0000 C   0  0  0  0  0  0  0  0  0  0  0  0
    2.9640   -2.9070    0.0000 C   0  0  0  0  0  0  0  0  0  0  0  0
    5.2140   -1.6080    0.0000 C   0  0  0  0  0  0  0  0  0  0  0  0
    2.2140   -1.6080    0.0000 C   0  0  0  0  0  0  0  0  0  0  0  0
    4.4640   -0.3090    0.0000 C   0  0  0  0  0  0  0  0  0  0  0  0
    2.2140   -4.2060    0.0000 C   0  0  0  0  0  0  0  0  0  0  0  0
    6.7140   -1.6080    0.0000 C   0  0  0  0  0  0  0  0  0  0  0  0
    0.7140   -1.6080    0.0000 C   0  0  0  0  0  0  0  0  0  0  0  0
    5.2140    0.9900    0.0000 C   0  0  0  0  0  0  0  0  0  0  0  0
    9.7140   -4.2060    0.0000 C   0  0  0  0  0  0  0  0  0  0  0  0
    9.7140   -6.8040    0.0000 C   0  0  0  0  0  0  0  0  0  0  0  0
    0.7140   -4.2060    0.0000 C   0  0  0  0  0  0  0  0  0  0  0  0
    7.4640   -0.3090    0.0000 C   0  0  0  0  0  0  0  0  0  0  0  0
   -0.0360   -2.9070    0.0000 C   0  0  0  0  0  0  0  0  0  0  0  0
    6.7140    0.9900    0.0000 C   0  0  0  0  0  0  0  0  0  0  0  0
    5.4230   -5.3880    0.0000 H   0  0  0  0  0  0  0  0  0  0  0  0
    4.0870   -4.6170    0.0000 H   0  0  0  0  0  0  0  0  0  0  0  0
    7.8420   -3.7960    0.0000 H   0  0  0  0  0  0  0  0  0  0  0  0
    6.5060   -3.0250    0.0000 H   0  0  0  0  0  0  0  0  0  0  0  0
    7.6730   -6.6870    0.0000 H   0  0  0  0  0  0  0  0  0  0  0  0
    6.3370   -5.9160    0.0000 H   0  0  0  0  0  0  0  0  0  0  0  0
    2.8140   -5.2460    0.0000 H   0  0  0  0  0  0  0  0  0  0  0  0
    7.3140   -2.6480    0.0000 H   0  0  0  0  0  0  0  0  0  0  0  0
    0.1140   -0.5690    0.0000 H   0  0  0  0  0  0  0  0  0  0  0  0
    4.6140    2.0290    0.0000 H   0  0  0  0  0  0  0  0  0  0  0  0
   10.7540   -4.8060    0.0000 H   0  0  0  0  0  0  0  0  0  0  0  0
   10.3140   -3.1670    0.0000 H   0  0  0  0  0  0  0  0  0  0  0  0
    8.6750   -3.6060    0.0000 H   0  0  0  0  0  0  0  0  0  0  0  0
    8.6750   -7.4040    0.0000 H   0  0  0  0  0  0  0  0  0  0  0  0
   10.3140   -7.8440    0.0000 H   0  0  0  0  0  0  0  0  0  0  0  0
   10.7540   -6.2040    0.0000 H   0  0  0  0  0  0  0  0  0  0  0  0
    8.6640   -0.3090    0.0000 H   0  0  0  0  0  0  0  0  0  0  0  0
   -1.2360   -2.9070    0.0000 H   0  0  0  0  0  0  0  0  0  0  0  0
    7.3140    2.0290    0.0000 H   0  0  0  0  0  0  0  0  0  0  0  0
  1 18  1  0  0  0  0
  2 10  1  0  0  0  0
  2 11  1  0  0  0  0
  3  5  1  0  0  0  0
  3  8  1  0  0  0  0
  3  9  1  0  0  0  0
  4  7  1  0  0  0  0
  4 16  1  0  0  0  0
  4 17  1  0  0  0  0
  5  6  1  0  0  0  0
  5 22  1  0  0  0  0
  5 23  1  0  0  0  0
  6  7  1  0  0  0  0
  6 24  1  0  0  0  0
  6 25  1  0  0  0  0
  7 26  1  0  0  0  0
  7 27  1  0  0  0  0
  8 10  2  0  0  0  0
  8 12  1  0  0  0  0
  9 11  2  0  0  0  0
  9 13  1  0  0  0  0
 10 14  1  0  0  0  0
 11 15  1  0  0  0  0
 12 18  2  0  0  0  0
 12 28  1  0  0  0  0
 13 19  2  0  0  0  0
 13 29  1  0  0  0  0
 14 20  2  0  0  0  0
 14 30  1  0  0  0  0
 15 21  2  0  0  0  0
 15 31  1  0  0  0  0
 16 32  1  0  0  0  0
 16 33  1  0  0  0  0
 16 34  1  0  0  0  0
 17 35  1  0  0  0  0
 17 36  1  0  0  0  0
 17 37  1  0  0  0  0
 18 20  1  0  0  0  0
 19 21  1  0  0  0  0
 19 38  1  0  0  0  0
 20 39  1  0  0  0  0
 21 40  1  0  0  0  0
M  END
$$$$
cisapride
  MOE2018           2D

 61 63  0  0  1  0  0  0  0  0999 V2000
   -2.0160    8.4440    0.0000 Cl  0  0  0  0  0  0  0  0  0  0  0  0
   18.2340    4.5470    0.0000 F   0  0  0  0  0  0  0  0  0  0  0  0
    4.7340    9.7430    0.0000 O   0  0  0  0  0  0  0  0  0  0  0  0
   12.2340    4.5470    0.0000 O   0  0  0  0  0  0  0  0  0  0  0  0
    3.2340    4.5470    0.0000 O   0  0  0  0  0  0  0  0  0  0  0  0
    0.9840    3.2480    0.0000 O   0  0  0  0  0  0  0  0  0  0  0  0
    7.7340    7.1450    0.0000 N   0  0  2  0  0  0  0  0  0  0  0  0
    3.2340    7.1450    0.0000 N   0  0  0  0  0  0  0  0  0  0  0  0
   -3.5160    5.8460    0.0000 N   0  0  0  0  0  0  0  0  0  0  0  0
    4.7340    7.1450    0.0000 C   0  0  1  0  0  0  0  0  0  0  0  0
    5.4840    8.4440    0.0000 C   0  0  2  0  0  0  0  0  0  0  0  0
    5.4840    5.8460    0.0000 C   0  0  0  0  0  0  0  0  0  0  0  0
    6.9840    8.4440    0.0000 C   0  0  0  0  0  0  0  0  0  0  0  0
    6.9840    5.8460    0.0000 C   0  0  0  0  0  0  0  0  0  0  0  0
    9.2340    7.1450    0.0000 C   0  0  0  0  0  0  0  0  0  0  0  0
    9.9840    5.8460    0.0000 C   0  0  0  0  0  0  0  0  0  0  0  0
    2.4840    5.8460    0.0000 C   0  0  0  0  0  0  0  0  0  0  0  0
   11.4840    5.8460    0.0000 C   0  0  0  0  0  0  0  0  0  0  0  0
    5.4840   11.0420    0.0000 C   0  0  0  0  0  0  0  0  0  0  0  0
    0.9840    5.8460    0.0000 C   0  0  0  0  0  0  0  0  0  0  0  0
    0.2340    4.5470    0.0000 C   0  0  0  0  0  0  0  0  0  0  0  0
    0.2340    7.1450    0.0000 C   0  0  0  0  0  0  0  0  0  0  0  0
   13.7340    4.5470    0.0000 C   0  0  0  0  0  0  0  0  0  0  0  0
   -1.2660    4.5470    0.0000 C   0  0  0  0  0  0  0  0  0  0  0  0
   -1.2660    7.1450    0.0000 C   0  0  0  0  0  0  0  0  0  0  0  0
   -2.0160    5.8460    0.0000 C   0  0  0  0  0  0  0  0  0  0  0  0
   14.4840    5.8460    0.0000 C   0  0  0  0  0  0  0  0  0  0  0  0
   14.4840    3.2480    0.0000 C   0  0  0  0  0  0  0  0  0  0  0  0
    0.2340    1.9490    0.0000 C   0  0  0  0  0  0  0  0  0  0  0  0
   15.9840    5.8460    0.0000 C   0  0  0  0  0  0  0  0  0  0  0  0
   15.9840    3.2480    0.0000 C   0  0  0  0  0  0  0  0  0  0  0  0
   16.7340    4.5470    0.0000 C   0  0  0  0  0  0  0  0  0  0  0  0
    4.1340    8.1840    0.0000 H   0  0  0  0  0  0  0  0  0  0  0  0
    6.0840    9.4830    0.0000 H   0  0  0  0  0  0  0  0  0  0  0  0
    5.6930    4.6640    0.0000 H   0  0  0  0  0  0  0  0  0  0  0  0
    4.3570    5.4350    0.0000 H   0  0  0  0  0  0  0  0  0  0  0  0
    8.1120    8.8540    0.0000 H   0  0  0  0  0  0  0  0  0  0  0  0
    6.7760    9.6260    0.0000 H   0  0  0  0  0  0  0  0  0  0  0  0
    8.1120    5.4350    0.0000 H   0  0  0  0  0  0  0  0  0  0  0  0
    6.7760    4.6640    0.0000 H   0  0  0  0  0  0  0  0  0  0  0  0
   10.3620    7.5550    0.0000 H   0  0  0  0  0  0  0  0  0  0  0  0
    9.0260    8.3260    0.0000 H   0  0  0  0  0  0  0  0  0  0  0  0
    2.6340    8.1840    0.0000 H   0  0  0  0  0  0  0  0  0  0  0  0
   10.1930    4.6640    0.0000 H   0  0  0  0  0  0  0  0  0  0  0  0
    8.8570    5.4350    0.0000 H   0  0  0  0  0  0  0  0  0  0  0  0
   12.6120    6.2560    0.0000 H   0  0  0  0  0  0  0  0  0  0  0  0
   11.2760    7.0270    0.0000 H   0  0  0  0  0  0  0  0  0  0  0  0
    6.5240   10.4420    0.0000 H   0  0  0  0  0  0  0  0  0  0  0  0
    6.0840   12.0810    0.0000 H   0  0  0  0  0  0  0  0  0  0  0  0
    4.4450   11.6420    0.0000 H   0  0  0  0  0  0  0  0  0  0  0  0
    0.8340    8.1840    0.0000 H   0  0  0  0  0  0  0  0  0  0  0  0
   -1.8660    3.5070    0.0000 H   0  0  0  0  0  0  0  0  0  0  0  0
   13.8840    6.8850    0.0000 H   0  0  0  0  0  0  0  0  0  0  0  0
   13.8840    2.2080    0.0000 H   0  0  0  0  0  0  0  0  0  0  0  0
   -4.1160    6.8850    0.0000 H   0  0  0  0  0  0  0  0  0  0  0  0
   -4.1160    4.8060    0.0000 H   0  0  0  0  0  0  0  0  0  0  0  0
   -0.8050    2.5490    0.0000 H   0  0  0  0  0  0  0  0  0  0  0  0
   -0.3660    0.9090    0.0000 H   0  0  0  0  0  0  0  0  0  0  0  0
    1.2740    1.3490    0.0000 H   0  0  0  0  0  0  0  0  0  0  0  0
   16.5840    6.8850    0.0000 H   0  0  0  0  0  0  0  0  0  0  0  0
   16.5840    2.2080    0.0000 H   0  0  0  0  0  0  0  0  0  0  0  0
  1 25  1  0  0  0  0
  2 32  1  0  0  0  0
 11  3  1  1  0  0  0
  3 19  1  0  0  0  0
  4 18  1  0  0  0  0
  4 23  1  0  0  0  0
  5 17  2  0  0  0  0
  6 21  1  0  0  0  0
  6 29  1  0  0  0  0
  7 13  1  0  0  0  0
  7 14  1  0  0  0  0
  7 15  1  1  0  0  0
 10  8  1  1  0  0  0
  8 17  1  0  0  0  0
  8 43  1  0  0  0  0
  9 26  1  0  0  0  0
  9 55  1  0  0  0  0
  9 56  1  0  0  0  0
 10 11  1  0  0  0  0
 10 12  1  0  0  0  0
 10 33  1  6  0  0  0
 11 13  1  0  0  0  0
 11 34  1  6  0  0  0
 12 14  1  0  0  0  0
 12 35  1  0  0  0  0
 12 36  1  0  0  0  0
 13 37  1  0  0  0  0
 13 38  1  0  0  0  0
 14 39  1  0  0  0  0
 14 40  1  0  0  0  0
 15 16  1  0  0  0  0
 15 41  1  0  0  0  0
 15 42  1  0  0  0  0
 16 18  1  0  0  0  0
 16 44  1  0  0  0  0
 16 45  1  0  0  0  0
 17 20  1  0  0  0  0
 18 46  1  0  0  0  0
 18 47  1  0  0  0  0
 19 48  1  0  0  0  0
 19 49  1  0  0  0  0
 19 50  1  0  0  0  0
 20 21  1  0  0  0  0
 20 22  2  0  0  0  0
 21 24  2  0  0  0  0
 22 25  1  0  0  0  0
 22 51  1  0  0  0  0
 23 27  1  0  0  0  0
 23 28  2  0  0  0  0
 24 26  1  0  0  0  0
 24 52  1  0  0  0  0
 25 26  2  0  0  0  0
 27 30  2  0  0  0  0
 27 53  1  0  0  0  0
 28 31  1  0  0  0  0
 28 54  1  0  0  0  0
 29 57  1  0  0  0  0
 29 58  1  0  0  0  0
 29 59  1  0  0  0  0
 30 32  1  0  0  0  0
 30 60  1  0  0  0  0
 31 32  2  0  0  0  0
 31 61  1  0  0  0  0
M  END
$$$$
diltiazem
  MOE2018           2D

 55 57  0  0  1  0  0  0  0  0999 V2000
    2.1190   -0.6980    0.0000 S   0  0  0  0  0  0  0  0  0  0  0  0
    2.9090    3.2100    0.0000 O   0  0  0  0  0  0  0  0  0  0  0  0
    0.1580    3.7330    0.0000 O   0  0  0  0  0  0  0  0  0  0  0  0
    8.7150    0.9020    0.0000 O   0  0  0  0  0  0  0  0  0  0  0  0
    0.8200    4.7540    0.0000 O   0  0  0  0  0  0  0  0  0  0  0  0
   -0.5940    1.3060    0.0000 N   0  0  0  0  0  0  0  0  0  0  0  0
   -4.5500    1.6170    0.0000 N   0  0  0  0  0  0  0  0  0  0  0  0
    2.7190    0.6770    0.0000 C   0  0  2  0  0  0  0  0  0  0  0  0
    2.0180    2.0030    0.0000 C   0  0  2  0  0  0  0  0  0  0  0  0
    0.5440    2.2830    0.0000 C   0  0  0  0  0  0  0  0  0  0  0  0
   -1.9680    1.9070    0.0000 C   0  0  0  0  0  0  0  0  0  0  0  0
   -0.5360   -0.1940    0.0000 C   0  0  0  0  0  0  0  0  0  0  0  0
    4.2180    0.7330    0.0000 C   0  0  0  0  0  0  0  0  0  0  0  0
    0.6700   -1.0850    0.0000 C   0  0  0  0  0  0  0  0  0  0  0  0
   -3.1760    1.0170    0.0000 C   0  0  0  0  0  0  0  0  0  0  0  0
   -1.9120   -0.7930    0.0000 C   0  0  0  0  0  0  0  0  0  0  0  0
    0.5010   -2.5750    0.0000 C   0  0  0  0  0  0  0  0  0  0  0  0
    4.9180    2.0600    0.0000 C   0  0  0  0  0  0  0  0  0  0  0  0
    5.0160   -0.5370    0.0000 C   0  0  0  0  0  0  0  0  0  0  0  0
   -2.0800   -2.2830    0.0000 C   0  0  0  0  0  0  0  0  0  0  0  0
   -0.8740   -3.1750    0.0000 C   0  0  0  0  0  0  0  0  0  0  0  0
    6.4170    2.1160    0.0000 C   0  0  0  0  0  0  0  0  0  0  0  0
    6.5150   -0.4810    0.0000 C   0  0  0  0  0  0  0  0  0  0  0  0
   -5.7580    0.7270    0.0000 C   0  0  0  0  0  0  0  0  0  0  0  0
   -4.7170    3.1080    0.0000 C   0  0  0  0  0  0  0  0  0  0  0  0
    7.2160    0.8460    0.0000 C   0  0  0  0  0  0  0  0  0  0  0  0
    2.3100    4.5850    0.0000 C   0  0  0  0  0  0  0  0  0  0  0  0
    3.2010    5.7920    0.0000 C   0  0  0  0  0  0  0  0  0  0  0  0
    9.5130   -0.3680    0.0000 C   0  0  0  0  0  0  0  0  0  0  0  0
    3.3190   -0.3620    0.0000 H   0  0  0  0  0  0  0  0  0  0  0  0
    1.1700    1.1550    0.0000 H   0  0  0  0  0  0  0  0  0  0  0  0
   -2.8370    2.7340    0.0000 H   0  0  0  0  0  0  0  0  0  0  0  0
   -1.3040    2.9060    0.0000 H   0  0  0  0  0  0  0  0  0  0  0  0
   -3.8400    0.0170    0.0000 H   0  0  0  0  0  0  0  0  0  0  0  0
   -2.3070    0.1890    0.0000 H   0  0  0  0  0  0  0  0  0  0  0  0
   -2.8770   -0.0800    0.0000 H   0  0  0  0  0  0  0  0  0  0  0  0
    1.4670   -3.2880    0.0000 H   0  0  0  0  0  0  0  0  0  0  0  0
    4.2800    3.0760    0.0000 H   0  0  0  0  0  0  0  0  0  0  0  0
    4.4550   -1.5980    0.0000 H   0  0  0  0  0  0  0  0  0  0  0  0
   -3.1800   -2.7630    0.0000 H   0  0  0  0  0  0  0  0  0  0  0  0
   -1.0080   -4.3670    0.0000 H   0  0  0  0  0  0  0  0  0  0  0  0
    6.9780    3.1770    0.0000 H   0  0  0  0  0  0  0  0  0  0  0  0
    7.1530   -1.4970    0.0000 H   0  0  0  0  0  0  0  0  0  0  0  0
   -6.4700    1.6930    0.0000 H   0  0  0  0  0  0  0  0  0  0  0  0
   -6.7230    0.0150    0.0000 H   0  0  0  0  0  0  0  0  0  0  0  0
   -5.0450   -0.2390    0.0000 H   0  0  0  0  0  0  0  0  0  0  0  0
   -3.5250    3.2420    0.0000 H   0  0  0  0  0  0  0  0  0  0  0  0
   -4.8510    4.3010    0.0000 H   0  0  0  0  0  0  0  0  0  0  0  0
   -5.9100    2.9740    0.0000 H   0  0  0  0  0  0  0  0  0  0  0  0
    4.1670    5.0790    0.0000 H   0  0  0  0  0  0  0  0  0  0  0  0
    3.9140    6.7570    0.0000 H   0  0  0  0  0  0  0  0  0  0  0  0
    2.2360    6.5050    0.0000 H   0  0  0  0  0  0  0  0  0  0  0  0
    8.4970   -1.0070    0.0000 H   0  0  0  0  0  0  0  0  0  0  0  0
   10.1510   -1.3840    0.0000 H   0  0  0  0  0  0  0  0  0  0  0  0
   10.5290    0.2700    0.0000 H   0  0  0  0  0  0  0  0  0  0  0  0
  1  8  1  0  0  0  0
  1 14  1  0  0  0  0
  2  9  1  0  0  0  0
  2 27  1  0  0  0  0
  3 10  2  0  0  0  0
  4 26  1  0  0  0  0
  4 29  1  0  0  0  0
  5 27  2  0  0  0  0
  6 10  1  0  0  0  0
  6 11  1  0  0  0  0
  6 12  1  0  0  0  0
  7 15  1  0  0  0  0
  7 24  1  0  0  0  0
  7 25  1  0  0  0  0
  8  9  1  0  0  0  0
  8 13  1  6  0  0  0
  8 30  1  1  0  0  0
  9 10  1  0  0  0  0
  9 31  1  1  0  0  0
 11 15  1  0  0  0  0
 11 32  1  0  0  0  0
 11 33  1  0  0  0  0
 12 14  1  0  0  0  0
 12 16  2  0  0  0  0
 13 18  1  0  0  0  0
 13 19  2  0  0  0  0
 14 17  2  0  0  0  0
 15 34  1  0  0  0  0
 15 35  1  0  0  0  0
 16 20  1  0  0  0  0
 16 36  1  0  0  0  0
 17 21  1  0  0  0  0
 17 37  1  0  0  0  0
 18 22  2  0  0  0  0
 18 38  1  0  0  0  0
 19 23  1  0  0  0  0
 19 39  1  0  0  0  0
 20 21  2  0  0  0  0
 20 40  1  0  0  0  0
 21 41  1  0  0  0  0
 22 26  1  0  0  0  0
 22 42  1  0  0  0  0
 23 26  2  0  0  0  0
 23 43  1  0  0  0  0
 24 44  1  0  0  0  0
 24 45  1  0  0  0  0
 24 46  1  0  0  0  0
 25 47  1  0  0  0  0
 25 48  1  0  0  0  0
 25 49  1  0  0  0  0
 27 28  1  0  0  0  0
 28 50  1  0  0  0  0
 28 51  1  0  0  0  0
 28 52  1  0  0  0  0
 29 53  1  0  0  0  0
 29 54  1  0  0  0  0
 29 55  1  0  0  0  0
M  END
$$$$
disopyramide
  MOE2018           2D

 54 55  0  0  1  0  0  0  0  0999 V2000
    3.3170    0.0000    0.0000 O   0  0  0  0  0  0  0  0  0  0  0  0
    4.9640    2.0490    0.0000 N   0  0  0  0  0  0  0  0  0  0  0  0
    1.0670    3.8970    0.0000 N   0  0  0  0  0  0  0  0  0  0  0  0
    1.0670   -1.2990    0.0000 N   0  0  0  0  0  0  0  0  0  0  0  0
    1.0670    1.2990    0.0000 C   0  0  1  0  0  0  0  0  0  0  0  0
    2.3660    2.0490    0.0000 C   0  0  0  0  0  0  0  0  0  0  0  0
    3.6650    1.2990    0.0000 C   0  0  0  0  0  0  0  0  0  0  0  0
    6.2630    1.2990    0.0000 C   0  0  0  0  0  0  0  0  0  0  0  0
    4.9640    3.5490    0.0000 C   0  0  0  0  0  0  0  0  0  0  0  0
   -0.2320    0.5490    0.0000 C   0  0  0  0  0  0  0  0  0  0  0  0
    0.3170    2.5980    0.0000 C   0  0  0  0  0  0  0  0  0  0  0  0
    1.8170    0.0000    0.0000 C   0  0  0  0  0  0  0  0  0  0  0  0
    7.5620    2.0490    0.0000 C   0  0  0  0  0  0  0  0  0  0  0  0
    6.2630   -0.2010    0.0000 C   0  0  0  0  0  0  0  0  0  0  0  0
    3.6650    4.2990    0.0000 C   0  0  0  0  0  0  0  0  0  0  0  0
    6.2630    4.2990    0.0000 C   0  0  0  0  0  0  0  0  0  0  0  0
   -0.2320   -0.9510    0.0000 C   0  0  0  0  0  0  0  0  0  0  0  0
   -1.5310    1.2990    0.0000 C   0  0  0  0  0  0  0  0  0  0  0  0
   -1.1830    2.5980    0.0000 C   0  0  0  0  0  0  0  0  0  0  0  0
   -1.5310   -1.7010    0.0000 C   0  0  0  0  0  0  0  0  0  0  0  0
   -2.8300    0.5490    0.0000 C   0  0  0  0  0  0  0  0  0  0  0  0
   -1.9330    3.8970    0.0000 C   0  0  0  0  0  0  0  0  0  0  0  0
   -2.8300   -0.9510    0.0000 C   0  0  0  0  0  0  0  0  0  0  0  0
    0.3170    5.1960    0.0000 C   0  0  0  0  0  0  0  0  0  0  0  0
   -1.1830    5.1960    0.0000 C   0  0  0  0  0  0  0  0  0  0  0  0
    2.7520    2.5090    0.0000 H   0  0  0  0  0  0  0  0  0  0  0  0
    1.5950    2.9680    0.0000 H   0  0  0  0  0  0  0  0  0  0  0  0
    4.4370    0.3800    0.0000 H   0  0  0  0  0  0  0  0  0  0  0  0
    2.8940    0.3800    0.0000 H   0  0  0  0  0  0  0  0  0  0  0  0
    7.3030    0.6990    0.0000 H   0  0  0  0  0  0  0  0  0  0  0  0
    4.9640    4.7490    0.0000 H   0  0  0  0  0  0  0  0  0  0  0  0
    8.1620    1.0100    0.0000 H   0  0  0  0  0  0  0  0  0  0  0  0
    8.6020    2.6490    0.0000 H   0  0  0  0  0  0  0  0  0  0  0  0
    7.2620    2.5690    0.0000 H   0  0  0  0  0  0  0  0  0  0  0  0
    5.0630   -0.2010    0.0000 H   0  0  0  0  0  0  0  0  0  0  0  0
    6.2630   -1.4010    0.0000 H   0  0  0  0  0  0  0  0  0  0  0  0
    7.4630   -0.2010    0.0000 H   0  0  0  0  0  0  0  0  0  0  0  0
    4.2650    5.3380    0.0000 H   0  0  0  0  0  0  0  0  0  0  0  0
    2.6260    4.8990    0.0000 H   0  0  0  0  0  0  0  0  0  0  0  0
    3.3650    3.7790    0.0000 H   0  0  0  0  0  0  0  0  0  0  0  0
    6.5630    3.7790    0.0000 H   0  0  0  0  0  0  0  0  0  0  0  0
    7.3030    4.8990    0.0000 H   0  0  0  0  0  0  0  0  0  0  0  0
    5.6630    5.3380    0.0000 H   0  0  0  0  0  0  0  0  0  0  0  0
    0.2880   -1.2510    0.0000 H   0  0  0  0  0  0  0  0  0  0  0  0
   -1.5310    1.8990    0.0000 H   0  0  0  0  0  0  0  0  0  0  0  0
   -1.4830    2.0780    0.0000 H   0  0  0  0  0  0  0  0  0  0  0  0
    0.4670   -1.2990    0.0000 H   0  0  0  0  0  0  0  0  0  0  0  0
    1.6670   -2.3380    0.0000 H   0  0  0  0  0  0  0  0  0  0  0  0
   -1.5310   -2.9010    0.0000 H   0  0  0  0  0  0  0  0  0  0  0  0
   -3.8690    1.1490    0.0000 H   0  0  0  0  0  0  0  0  0  0  0  0
   -3.1330    3.8970    0.0000 H   0  0  0  0  0  0  0  0  0  0  0  0
   -3.8690   -1.5510    0.0000 H   0  0  0  0  0  0  0  0  0  0  0  0
    0.9170    6.2350    0.0000 H   0  0  0  0  0  0  0  0  0  0  0  0
   -1.7830    6.2350    0.0000 H   0  0  0  0  0  0  0  0  0  0  0  0
  1 12  2  0  0  0  0
  2  7  1  0  0  0  0
  2  8  1  0  0  0  0
  2  9  1  0  0  0  0
  3 11  1  0  0  0  0
  3 24  2  0  0  0  0
  4 12  1  0  0  0  0
  4 47  1  0  0  0  0
  4 48  1  0  0  0  0
  5  6  1  1  0  0  0
  5 10  1  0  0  0  0
  5 11  1  0  0  0  0
  5 12  1  6  0  0  0
  6  7  1  0  0  0  0
  6 26  1  0  0  0  0
  6 27  1  0  0  0  0
  7 28  1  0  0  0  0
  7 29  1  0  0  0  0
  8 13  1  0  0  0  0
  8 14  1  0  0  0  0
  8 30  1  0  0  0  0
  9 15  1  0  0  0  0
  9 16  1  0  0  0  0
  9 31  1  0  0  0  0
 10 17  2  0  0  0  0
 10 18  1  0  0  0  0
 11 19  2  0  0  0  0
 13 32  1  0  0  0  0
 13 33  1  0  0  0  0
 13 34  1  0  0  0  0
 14 35  1  0  0  0  0
 14 36  1  0  0  0  0
 14 37  1  0  0  0  0
 15 38  1  0  0  0  0
 15 39  1  0  0  0  0
 15 40  1  0  0  0  0
 16 41  1  0  0  0  0
 16 42  1  0  0  0  0
 16 43  1  0  0  0  0
 17 20  1  0  0  0  0
 17 44  1  0  0  0  0
 18 21  2  0  0  0  0
 18 45  1  0  0  0  0
 19 22  1  0  0  0  0
 19 46  1  0  0  0  0
 20 23  2  0  0  0  0
 20 49  1  0  0  0  0
 21 23  1  0  0  0  0
 21 50  1  0  0  0  0
 22 25  2  0  0  0  0
 22 51  1  0  0  0  0
 23 52  1  0  0  0  0
 24 25  1  0  0  0  0
 24 53  1  0  0  0  0
 25 54  1  0  0  0  0
M  END
$$$$
dofetilide
  MOE2018           2D

 56 57  0  0  1  0  0  0  0  0999 V2000
  -16.2600    5.5090    0.0000 S   0  0  0  0  0  0  0  0  0  0  0  0
    3.2250    9.2590    0.0000 S   0  0  0  0  0  0  0  0  0  0  0  0
   -3.2700    7.0090    0.0000 O   0  0  0  0  0  0  0  0  0  0  0  0
  -17.0100    4.2100    0.0000 O   0  0  0  0  0  0  0  0  0  0  0  0
  -15.5100    6.8080    0.0000 O   0  0  0  0  0  0  0  0  0  0  0  0
    2.4750    7.9600    0.0000 O   0  0  0  0  0  0  0  0  0  0  0  0
    3.9750   10.5580    0.0000 O   0  0  0  0  0  0  0  0  0  0  0  0
   -7.1670    7.7590    0.0000 N   0  0  2  0  0  0  0  0  0  0  0  0
  -14.9610    4.7590    0.0000 N   0  0  0  0  0  0  0  0  0  0  0  0
    1.9260   10.0090    0.0000 N   0  0  0  0  0  0  0  0  0  0  0  0
   -8.4660    7.0090    0.0000 C   0  0  0  0  0  0  0  0  0  0  0  0
   -9.7650    7.7590    0.0000 C   0  0  0  0  0  0  0  0  0  0  0  0
   -5.8680    7.0090    0.0000 C   0  0  0  0  0  0  0  0  0  0  0  0
  -11.0640    7.0090    0.0000 C   0  0  0  0  0  0  0  0  0  0  0  0
   -4.5690    7.7590    0.0000 C   0  0  0  0  0  0  0  0  0  0  0  0
   -7.1670    9.2590    0.0000 C   0  0  0  0  0  0  0  0  0  0  0  0
  -11.0640    5.5090    0.0000 C   0  0  0  0  0  0  0  0  0  0  0  0
  -12.3630    7.7590    0.0000 C   0  0  0  0  0  0  0  0  0  0  0  0
  -13.6620    5.5090    0.0000 C   0  0  0  0  0  0  0  0  0  0  0  0
  -12.3630    4.7590    0.0000 C   0  0  0  0  0  0  0  0  0  0  0  0
  -13.6620    7.0090    0.0000 C   0  0  0  0  0  0  0  0  0  0  0  0
   -1.9710    7.7590    0.0000 C   0  0  0  0  0  0  0  0  0  0  0  0
    0.6270    9.2590    0.0000 C   0  0  0  0  0  0  0  0  0  0  0  0
   -1.9710    9.2590    0.0000 C   0  0  0  0  0  0  0  0  0  0  0  0
   -0.6720    7.0090    0.0000 C   0  0  0  0  0  0  0  0  0  0  0  0
   -0.6720   10.0090    0.0000 C   0  0  0  0  0  0  0  0  0  0  0  0
    0.6270    7.7590    0.0000 C   0  0  0  0  0  0  0  0  0  0  0  0
  -17.5590    6.2590    0.0000 C   0  0  0  0  0  0  0  0  0  0  0  0
    4.5240    8.5090    0.0000 C   0  0  0  0  0  0  0  0  0  0  0  0
   -9.2370    6.0890    0.0000 H   0  0  0  0  0  0  0  0  0  0  0  0
   -7.6950    6.0890    0.0000 H   0  0  0  0  0  0  0  0  0  0  0  0
  -10.5370    8.6780    0.0000 H   0  0  0  0  0  0  0  0  0  0  0  0
   -8.9940    8.6780    0.0000 H   0  0  0  0  0  0  0  0  0  0  0  0
   -5.0970    6.0890    0.0000 H   0  0  0  0  0  0  0  0  0  0  0  0
   -6.6390    6.0890    0.0000 H   0  0  0  0  0  0  0  0  0  0  0  0
   -3.7980    8.6780    0.0000 H   0  0  0  0  0  0  0  0  0  0  0  0
   -5.3400    8.6780    0.0000 H   0  0  0  0  0  0  0  0  0  0  0  0
   -5.9670    9.2590    0.0000 H   0  0  0  0  0  0  0  0  0  0  0  0
   -7.1670   10.4590    0.0000 H   0  0  0  0  0  0  0  0  0  0  0  0
   -8.3670    9.2590    0.0000 H   0  0  0  0  0  0  0  0  0  0  0  0
  -10.0250    4.9090    0.0000 H   0  0  0  0  0  0  0  0  0  0  0  0
  -12.3630    8.9590    0.0000 H   0  0  0  0  0  0  0  0  0  0  0  0
  -12.3630    3.5590    0.0000 H   0  0  0  0  0  0  0  0  0  0  0  0
  -14.7020    7.6090    0.0000 H   0  0  0  0  0  0  0  0  0  0  0  0
  -14.9610    3.5590    0.0000 H   0  0  0  0  0  0  0  0  0  0  0  0
   -3.0100    9.8590    0.0000 H   0  0  0  0  0  0  0  0  0  0  0  0
   -0.6720    5.8090    0.0000 H   0  0  0  0  0  0  0  0  0  0  0  0
   -0.6720   11.2090    0.0000 H   0  0  0  0  0  0  0  0  0  0  0  0
    1.6660    7.1590    0.0000 H   0  0  0  0  0  0  0  0  0  0  0  0
    1.9260   11.2090    0.0000 H   0  0  0  0  0  0  0  0  0  0  0  0
  -16.9590    7.2980    0.0000 H   0  0  0  0  0  0  0  0  0  0  0  0
  -18.5990    6.8590    0.0000 H   0  0  0  0  0  0  0  0  0  0  0  0
  -18.1590    5.2190    0.0000 H   0  0  0  0  0  0  0  0  0  0  0  0
    3.9240    7.4690    0.0000 H   0  0  0  0  0  0  0  0  0  0  0  0
    5.5630    7.9090    0.0000 H   0  0  0  0  0  0  0  0  0  0  0  0
    5.1240    9.5480    0.0000 H   0  0  0  0  0  0  0  0  0  0  0  0
  1  4  2  0  0  0  0
  1  5  2  0  0  0  0
  1  9  1  0  0  0  0
  1 28  1  0  0  0  0
  2  6  2  0  0  0  0
  2  7  2  0  0  0  0
  2 10  1  0  0  0  0
  2 29  1  0  0  0  0
  3 15  1  0  0  0  0
  3 22  1  0  0  0  0
  8 11  1  1  0  0  0
  8 13  1  0  0  0  0
  8 16  1  0  0  0  0
  9 19  1  0  0  0  0
  9 45  1  0  0  0  0
 10 23  1  0  0  0  0
 10 50  1  0  0  0  0
 11 12  1  0  0  0  0
 11 30  1  0  0  0  0
 11 31  1  0  0  0  0
 12 14  1  0  0  0  0
 12 32  1  0  0  0  0
 12 33  1  0  0  0  0
 13 15  1  0  0  0  0
 13 34  1  0  0  0  0
 13 35  1  0  0  0  0
 14 17  2  0  0  0  0
 14 18  1  0  0  0  0
 15 36  1  0  0  0  0
 15 37  1  0  0  0  0
 16 38  1  0  0  0  0
 16 39  1  0  0  0  0
 16 40  1  0  0  0  0
 17 20  1  0  0  0  0
 17 41  1  0  0  0  0
 18 21  2  0  0  0  0
 18 42  1  0  0  0  0
 19 20  2  0  0  0  0
 19 21  1  0  0  0  0
 20 43  1  0  0  0  0
 21 44  1  0  0  0  0
 22 24  2  0  0  0  0
 22 25  1  0  0  0  0
 23 26  2  0  0  0  0
 23 27  1  0  0  0  0
 24 26  1  0  0  0  0
 24 46  1  0  0  0  0
 25 27  2  0  0  0  0
 25 47  1  0  0  0  0
 26 48  1  0  0  0  0
 27 49  1  0  0  0  0
 28 51  1  0  0  0  0
 28 52  1  0  0  0  0
 28 53  1  0  0  0  0
 29 54  1  0  0  0  0
 29 55  1  0  0  0  0
 29 56  1  0  0  0  0
M  END
$$$$
donepezil
  MOE2018           2D

 57 60  0  0  1  0  0  0  0  0999 V2000
    0.6400   -0.7900    0.0000 O   0  0  0  0  0  0  0  0  0  0  0  0
   -2.3020    5.6890    0.0000 O   0  0  0  0  0  0  0  0  0  0  0  0
   -3.8020    3.0910    0.0000 O   0  0  0  0  0  0  0  0  0  0  0  0
    7.5180    2.7870    0.0000 N   0  0  0  0  0  0  0  0  0  0  0  0
    4.9200    1.2870    0.0000 C   0  0  0  0  0  0  0  0  0  0  0  0
    3.6210    0.5370    0.0000 C   0  0  0  0  0  0  0  0  0  0  0  0
    2.3220    1.2870    0.0000 C   0  0  2  0  0  0  0  0  0  0  0  0
    6.2190    0.5370    0.0000 C   0  0  0  0  0  0  0  0  0  0  0  0
    4.9200    2.7870    0.0000 C   0  0  0  0  0  0  0  0  0  0  0  0
    7.5180    1.2870    0.0000 C   0  0  0  0  0  0  0  0  0  0  0  0
    6.2190    3.5370    0.0000 C   0  0  0  0  0  0  0  0  0  0  0  0
    2.1650    2.7790    0.0000 C   0  0  0  0  0  0  0  0  0  0  0  0
    0.9520    0.6770    0.0000 C   0  0  0  0  0  0  0  0  0  0  0  0
    0.6980    3.0910    0.0000 C   0  0  0  0  0  0  0  0  0  0  0  0
   -0.0520    1.7920    0.0000 C   0  0  0  0  0  0  0  0  0  0  0  0
    8.8170    3.5370    0.0000 C   0  0  0  0  0  0  0  0  0  0  0  0
   -0.0520    4.3900    0.0000 C   0  0  0  0  0  0  0  0  0  0  0  0
   -1.5520    1.7920    0.0000 C   0  0  0  0  0  0  0  0  0  0  0  0
   10.1160    2.7870    0.0000 C   0  0  0  0  0  0  0  0  0  0  0  0
   -1.5520    4.3900    0.0000 C   0  0  0  0  0  0  0  0  0  0  0  0
   -2.3020    3.0910    0.0000 C   0  0  0  0  0  0  0  0  0  0  0  0
   10.1160    1.2870    0.0000 C   0  0  0  0  0  0  0  0  0  0  0  0
   11.4150    3.5370    0.0000 C   0  0  0  0  0  0  0  0  0  0  0  0
   11.4150    0.5370    0.0000 C   0  0  0  0  0  0  0  0  0  0  0  0
   12.7140    2.7870    0.0000 C   0  0  0  0  0  0  0  0  0  0  0  0
   12.7140    1.2870    0.0000 C   0  0  0  0  0  0  0  0  0  0  0  0
   -1.5520    6.9880    0.0000 C   0  0  0  0  0  0  0  0  0  0  0  0
   -4.5520    1.7920    0.0000 C   0  0  0  0  0  0  0  0  0  0  0  0
    4.9200    0.0870    0.0000 H   0  0  0  0  0  0  0  0  0  0  0  0
    2.8500   -0.3820    0.0000 H   0  0  0  0  0  0  0  0  0  0  0  0
    4.3920   -0.3820    0.0000 H   0  0  0  0  0  0  0  0  0  0  0  0
    2.3220    0.0870    0.0000 H   0  0  0  0  0  0  0  0  0  0  0  0
    6.9910   -0.3820    0.0000 H   0  0  0  0  0  0  0  0  0  0  0  0
    5.4480   -0.3820    0.0000 H   0  0  0  0  0  0  0  0  0  0  0  0
    4.5100    3.9150    0.0000 H   0  0  0  0  0  0  0  0  0  0  0  0
    4.3290    2.6830    0.0000 H   0  0  0  0  0  0  0  0  0  0  0  0
    8.7000    1.4960    0.0000 H   0  0  0  0  0  0  0  0  0  0  0  0
    7.9290    0.1600    0.0000 H   0  0  0  0  0  0  0  0  0  0  0  0
    6.9910    4.4560    0.0000 H   0  0  0  0  0  0  0  0  0  0  0  0
    5.4480    4.4560    0.0000 H   0  0  0  0  0  0  0  0  0  0  0  0
    2.2910    3.9720    0.0000 H   0  0  0  0  0  0  0  0  0  0  0  0
    2.7650    2.7790    0.0000 H   0  0  0  0  0  0  0  0  0  0  0  0
    9.5890    4.4560    0.0000 H   0  0  0  0  0  0  0  0  0  0  0  0
    8.0460    4.4560    0.0000 H   0  0  0  0  0  0  0  0  0  0  0  0
    0.5480    5.4290    0.0000 H   0  0  0  0  0  0  0  0  0  0  0  0
   -2.1520    0.7530    0.0000 H   0  0  0  0  0  0  0  0  0  0  0  0
    9.0770    0.6870    0.0000 H   0  0  0  0  0  0  0  0  0  0  0  0
   11.4150    4.7370    0.0000 H   0  0  0  0  0  0  0  0  0  0  0  0
   11.4150   -0.6630    0.0000 H   0  0  0  0  0  0  0  0  0  0  0  0
   13.7540    3.3870    0.0000 H   0  0  0  0  0  0  0  0  0  0  0  0
   13.7540    0.6870    0.0000 H   0  0  0  0  0  0  0  0  0  0  0  0
   -0.5130    6.3880    0.0000 H   0  0  0  0  0  0  0  0  0  0  0  0
   -0.9520    8.0270    0.0000 H   0  0  0  0  0  0  0  0  0  0  0  0
   -2.5910    7.5880    0.0000 H   0  0  0  0  0  0  0  0  0  0  0  0
   -5.5910    2.3920    0.0000 H   0  0  0  0  0  0  0  0  0  0  0  0
   -5.1520    0.7530    0.0000 H   0  0  0  0  0  0  0  0  0  0  0  0
   -3.5130    1.1920    0.0000 H   0  0  0  0  0  0  0  0  0  0  0  0
  1 13  2  0  0  0  0
  2 20  1  0  0  0  0
  2 27  1  0  0  0  0
  3 21  1  0  0  0  0
  3 28  1  0  0  0  0
  4 10  1  0  0  0  0
  4 11  1  0  0  0  0
  4 16  1  0  0  0  0
  5  6  1  0  0  0  0
  5  8  1  0  0  0  0
  5  9  1  0  0  0  0
  5 29  1  0  0  0  0
  7  6  1  1  0  0  0
  6 30  1  0  0  0  0
  6 31  1  0  0  0  0
  7 12  1  0  0  0  0
  7 13  1  0  0  0  0
  7 32  1  6  0  0  0
  8 10  1  0  0  0  0
  8 33  1  0  0  0  0
  8 34  1  0  0  0  0
  9 11  1  0  0  0  0
  9 35  1  0  0  0  0
  9 36  1  0  0  0  0
 10 37  1  0  0  0  0
 10 38  1  0  0  0  0
 11 39  1  0  0  0  0
 11 40  1  0  0  0  0
 12 14  1  0  0  0  0
 12 41  1  0  0  0  0
 12 42  1  0  0  0  0
 13 15  1  0  0  0  0
 14 15  1  0  0  0  0
 14 17  2  0  0  0  0
 15 18  2  0  0  0  0
 16 19  1  0  0  0  0
 16 43  1  0  0  0  0
 16 44  1  0  0  0  0
 17 20  1  0  0  0  0
 17 45  1  0  0  0  0
 18 21  1  0  0  0  0
 18 46  1  0  0  0  0
 19 22  2  0  0  0  0
 19 23  1  0  0  0  0
 20 21  2  0  0  0  0
 22 24  1  0  0  0  0
 22 47  1  0  0  0  0
 23 25  2  0  0  0  0
 23 48  1  0  0  0  0
 24 26  2  0  0  0  0
 24 49  1  0  0  0  0
 25 26  1  0  0  0  0
 25 50  1  0  0  0  0
 26 51  1  0  0  0  0
 27 52  1  0  0  0  0
 27 53  1  0  0  0  0
 27 54  1  0  0  0  0
 28 55  1  0  0  0  0
 28 56  1  0  0  0  0
 28 57  1  0  0  0  0
M  END
$$$$
droperidol
  MOE2018           2D

 50 53  0  0  1  0  0  0  0  0999 V2000
   20.8810    3.8690    0.0000 F   0  0  0  0  0  0  0  0  0  0  0  0
    5.4630    3.9110    0.0000 O   0  0  0  0  0  0  0  0  0  0  0  0
   14.1310    5.1680    0.0000 O   0  0  0  0  0  0  0  0  0  0  0  0
   10.3810    1.2710    0.0000 N   0  0  1  0  0  0  0  0  0  0  0  0
    5.8810    1.2710    0.0000 N   0  0  0  0  0  0  0  0  0  0  0  0
    3.5730    2.0210    0.0000 N   0  0  0  0  0  0  0  0  0  0  0  0
    9.6310    2.5700    0.0000 C   0  0  0  0  0  0  0  0  0  0  0  0
    8.1310    2.5700    0.0000 C   0  0  0  0  0  0  0  0  0  0  0  0
    9.6310   -0.0280    0.0000 C   0  0  0  0  0  0  0  0  0  0  0  0
    7.3810    1.2710    0.0000 C   0  0  0  0  0  0  0  0  0  0  0  0
   11.8810    1.2710    0.0000 C   0  0  0  0  0  0  0  0  0  0  0  0
    8.1310   -0.0280    0.0000 C   0  0  0  0  0  0  0  0  0  0  0  0
   12.6310    2.5700    0.0000 C   0  0  0  0  0  0  0  0  0  0  0  0
    4.9990    0.0570    0.0000 C   0  0  0  0  0  0  0  0  0  0  0  0
   14.1310    2.5700    0.0000 C   0  0  0  0  0  0  0  0  0  0  0  0
    4.9990    2.4840    0.0000 C   0  0  0  0  0  0  0  0  0  0  0  0
    3.5730    0.5210    0.0000 C   0  0  0  0  0  0  0  0  0  0  0  0
    5.3110   -1.4100    0.0000 C   0  0  0  0  0  0  0  0  0  0  0  0
   14.8810    3.8690    0.0000 C   0  0  0  0  0  0  0  0  0  0  0  0
    2.4580   -0.4830    0.0000 C   0  0  0  0  0  0  0  0  0  0  0  0
    4.1970   -2.4140    0.0000 C   0  0  0  0  0  0  0  0  0  0  0  0
    2.7700   -1.9500    0.0000 C   0  0  0  0  0  0  0  0  0  0  0  0
   16.3810    3.8690    0.0000 C   0  0  0  0  0  0  0  0  0  0  0  0
   17.1310    2.5700    0.0000 C   0  0  0  0  0  0  0  0  0  0  0  0
   17.1310    5.1680    0.0000 C   0  0  0  0  0  0  0  0  0  0  0  0
   18.6310    2.5700    0.0000 C   0  0  0  0  0  0  0  0  0  0  0  0
   18.6310    5.1680    0.0000 C   0  0  0  0  0  0  0  0  0  0  0  0
   19.3810    3.8690    0.0000 C   0  0  0  0  0  0  0  0  0  0  0  0
    9.4230    3.7520    0.0000 H   0  0  0  0  0  0  0  0  0  0  0  0
   10.7590    2.9800    0.0000 H   0  0  0  0  0  0  0  0  0  0  0  0
    7.0040    2.9800    0.0000 H   0  0  0  0  0  0  0  0  0  0  0  0
    8.3400    3.7520    0.0000 H   0  0  0  0  0  0  0  0  0  0  0  0
    9.4230   -1.2100    0.0000 H   0  0  0  0  0  0  0  0  0  0  0  0
   10.7590   -0.4390    0.0000 H   0  0  0  0  0  0  0  0  0  0  0  0
   13.0090    0.8610    0.0000 H   0  0  0  0  0  0  0  0  0  0  0  0
   11.6730    0.0890    0.0000 H   0  0  0  0  0  0  0  0  0  0  0  0
    7.5310   -1.0670    0.0000 H   0  0  0  0  0  0  0  0  0  0  0  0
   12.8400    3.7520    0.0000 H   0  0  0  0  0  0  0  0  0  0  0  0
   11.5040    2.9800    0.0000 H   0  0  0  0  0  0  0  0  0  0  0  0
   15.2590    2.1600    0.0000 H   0  0  0  0  0  0  0  0  0  0  0  0
   13.9230    1.3880    0.0000 H   0  0  0  0  0  0  0  0  0  0  0  0
    2.6020    2.7260    0.0000 H   0  0  0  0  0  0  0  0  0  0  0  0
    6.4530   -1.7810    0.0000 H   0  0  0  0  0  0  0  0  0  0  0  0
    1.3170   -0.1120    0.0000 H   0  0  0  0  0  0  0  0  0  0  0  0
    4.4460   -3.5870    0.0000 H   0  0  0  0  0  0  0  0  0  0  0  0
    1.8780   -2.7530    0.0000 H   0  0  0  0  0  0  0  0  0  0  0  0
   16.5310    1.5310    0.0000 H   0  0  0  0  0  0  0  0  0  0  0  0
   16.5310    6.2070    0.0000 H   0  0  0  0  0  0  0  0  0  0  0  0
   19.2310    1.5310    0.0000 H   0  0  0  0  0  0  0  0  0  0  0  0
   19.2310    6.2070    0.0000 H   0  0  0  0  0  0  0  0  0  0  0  0
  1 28  1  0  0  0  0
  2 16  2  0  0  0  0
  3 19  2  0  0  0  0
  4  7  1  0  0  0  0
  4  9  1  0  0  0  0
  4 11  1  6  0  0  0
  5 10  1  0  0  0  0
  5 14  1  0  0  0  0
  5 16  1  0  0  0  0
  6 16  1  0  0  0  0
  6 17  1  0  0  0  0
  6 42  1  0  0  0  0
  7  8  1  0  0  0  0
  7 29  1  0  0  0  0
  7 30  1  0  0  0  0
  8 10  1  0  0  0  0
  8 31  1  0  0  0  0
  8 32  1  0  0  0  0
  9 12  1  0  0  0  0
  9 33  1  0  0  0  0
  9 34  1  0  0  0  0
 10 12  2  0  0  0  0
 11 13  1  0  0  0  0
 11 35  1  0  0  0  0
 11 36  1  0  0  0  0
 12 37  1  0  0  0  0
 13 15  1  0  0  0  0
 13 38  1  0  0  0  0
 13 39  1  0  0  0  0
 14 17  1  0  0  0  0
 14 18  2  0  0  0  0
 15 19  1  0  0  0  0
 15 40  1  0  0  0  0
 15 41  1  0  0  0  0
 17 20  2  0  0  0  0
 18 21  1  0  0  0  0
 18 43  1  0  0  0  0
 19 23  1  0  0  0  0
 20 22  1  0  0  0  0
 20 44  1  0  0  0  0
 21 22  2  0  0  0  0
 21 45  1  0  0  0  0
 22 46  1  0  0  0  0
 23 24  1  0  0  0  0
 23 25  2  0  0  0  0
 24 26  2  0  0  0  0
 24 47  1  0  0  0  0
 25 27  1  0  0  0  0
 25 48  1  0  0  0  0
 26 28  1  0  0  0  0
 26 49  1  0  0  0  0
 27 28  2  0  0  0  0
 27 50  1  0  0  0  0
M  END
$$$$
duloxetine
  MOE2018           2D

 40 42  0  0  1  0  0  0  0  0999 V2000
   -6.1000   -0.5760    0.0000 S   0  0  0  0  0  0  0  0  0  0  0  0
   -3.3450    0.9160    0.0000 O   0  0  0  0  0  0  0  0  0  0  0  0
   -5.9430    5.4160    0.0000 N   0  0  0  0  0  0  0  0  0  0  0  0
   -4.6440    1.6660    0.0000 C   0  0  1  0  0  0  0  0  0  0  0  0
   -4.6440    3.1660    0.0000 C   0  0  0  0  0  0  0  0  0  0  0  0
   -5.9430    3.9160    0.0000 C   0  0  0  0  0  0  0  0  0  0  0  0
   -5.9430    0.9160    0.0000 C   0  0  0  0  0  0  0  0  0  0  0  0
   -2.0460    1.6660    0.0000 C   0  0  0  0  0  0  0  0  0  0  0  0
   -0.7470    0.9160    0.0000 C   0  0  0  0  0  0  0  0  0  0  0  0
    0.5520    1.6660    0.0000 C   0  0  0  0  0  0  0  0  0  0  0  0
   -7.3130    1.5260    0.0000 C   0  0  0  0  0  0  0  0  0  0  0  0
   -2.0460    3.1660    0.0000 C   0  0  0  0  0  0  0  0  0  0  0  0
   -0.7470   -0.5840    0.0000 C   0  0  0  0  0  0  0  0  0  0  0  0
    0.5520    3.1660    0.0000 C   0  0  0  0  0  0  0  0  0  0  0  0
   -0.7470    3.9160    0.0000 C   0  0  0  0  0  0  0  0  0  0  0  0
    1.8510    0.9160    0.0000 C   0  0  0  0  0  0  0  0  0  0  0  0
   -8.3170    0.4110    0.0000 C   0  0  0  0  0  0  0  0  0  0  0  0
   -7.5670   -0.8880    0.0000 C   0  0  0  0  0  0  0  0  0  0  0  0
   -7.2420    6.1660    0.0000 C   0  0  0  0  0  0  0  0  0  0  0  0
    0.5520   -1.3340    0.0000 C   0  0  0  0  0  0  0  0  0  0  0  0
    1.8510   -0.5840    0.0000 C   0  0  0  0  0  0  0  0  0  0  0  0
   -4.6440    0.4660    0.0000 H   0  0  0  0  0  0  0  0  0  0  0  0
   -4.2330    4.2940    0.0000 H   0  0  0  0  0  0  0  0  0  0  0  0
   -3.4620    2.9580    0.0000 H   0  0  0  0  0  0  0  0  0  0  0  0
   -7.1250    4.1240    0.0000 H   0  0  0  0  0  0  0  0  0  0  0  0
   -6.3530    2.7880    0.0000 H   0  0  0  0  0  0  0  0  0  0  0  0
   -7.5630    2.7000    0.0000 H   0  0  0  0  0  0  0  0  0  0  0  0
   -4.9040    6.0160    0.0000 H   0  0  0  0  0  0  0  0  0  0  0  0
   -3.0850    3.7660    0.0000 H   0  0  0  0  0  0  0  0  0  0  0  0
   -1.7860   -1.1840    0.0000 H   0  0  0  0  0  0  0  0  0  0  0  0
    1.5920    3.7660    0.0000 H   0  0  0  0  0  0  0  0  0  0  0  0
   -0.7470    5.1160    0.0000 H   0  0  0  0  0  0  0  0  0  0  0  0
    2.8910    1.5160    0.0000 H   0  0  0  0  0  0  0  0  0  0  0  0
   -9.5100    0.5370    0.0000 H   0  0  0  0  0  0  0  0  0  0  0  0
   -8.0550   -1.9840    0.0000 H   0  0  0  0  0  0  0  0  0  0  0  0
   -6.6420    7.2050    0.0000 H   0  0  0  0  0  0  0  0  0  0  0  0
   -8.2810    6.7660    0.0000 H   0  0  0  0  0  0  0  0  0  0  0  0
   -7.8420    5.1270    0.0000 H   0  0  0  0  0  0  0  0  0  0  0  0
    0.5520   -2.5340    0.0000 H   0  0  0  0  0  0  0  0  0  0  0  0
    2.8910   -1.1840    0.0000 H   0  0  0  0  0  0  0  0  0  0  0  0
  1  7  1  0  0  0  0
  1 18  1  0  0  0  0
  2  4  1  0  0  0  0
  2  8  1  0  0  0  0
  3  6  1  0  0  0  0
  3 19  1  0  0  0  0
  3 28  1  0  0  0  0
  4  5  1  0  0  0  0
  4  7  1  6  0  0  0
  4 22  1  1  0  0  0
  5  6  1  0  0  0  0
  5 23  1  0  0  0  0
  5 24  1  0  0  0  0
  6 25  1  0  0  0  0
  6 26  1  0  0  0  0
  7 11  2  0  0  0  0
  8  9  1  0  0  0  0
  8 12  2  0  0  0  0
  9 10  1  0  0  0  0
  9 13  2  0  0  0  0
 10 14  1  0  0  0  0
 10 16  2  0  0  0  0
 11 17  1  0  0  0  0
 11 27  1  0  0  0  0
 12 15  1  0  0  0  0
 12 29  1  0  0  0  0
 13 20  1  0  0  0  0
 13 30  1  0  0  0  0
 14 15  2  0  0  0  0
 14 31  1  0  0  0  0
 15 32  1  0  0  0  0
 16 21  1  0  0  0  0
 16 33  1  0  0  0  0
 17 18  2  0  0  0  0
 17 34  1  0  0  0  0
 18 35  1  0  0  0  0
 19 36  1  0  0  0  0
 19 37  1  0  0  0  0
 19 38  1  0  0  0  0
 20 21  2  0  0  0  0
 20 39  1  0  0  0  0
 21 40  1  0  0  0  0
M  END
$$$$
flecainide
  MOE2018           2D

 48 49  0  0  1  0  0  0  0  0999 V2000
    3.4930    9.5250    0.0000 F   0  0  0  0  0  0  0  0  0  0  0  0
    1.9930    8.0250    0.0000 F   0  0  0  0  0  0  0  0  0  0  0  0
    4.9930    8.0250    0.0000 F   0  0  0  0  0  0  0  0  0  0  0  0
    1.9930   -2.4750    0.0000 F   0  0  0  0  0  0  0  0  0  0  0  0
    4.9930   -2.4750    0.0000 F   0  0  0  0  0  0  0  0  0  0  0  0
    3.4930   -3.9750    0.0000 F   0  0  0  0  0  0  0  0  0  0  0  0
    7.3900    5.7750    0.0000 O   0  0  0  0  0  0  0  0  0  0  0  0
    4.7920    5.7750    0.0000 O   0  0  0  0  0  0  0  0  0  0  0  0
    4.7920   -0.2250    0.0000 O   0  0  0  0  0  0  0  0  0  0  0  0
   12.5870    4.2750    0.0000 N   0  0  0  0  0  0  0  0  0  0  0  0
    8.6890    3.5250    0.0000 N   0  0  0  0  0  0  0  0  0  0  0  0
   11.2880    3.5250    0.0000 C   0  0  2  0  0  0  0  0  0  0  0  0
   11.2880    2.0250    0.0000 C   0  0  0  0  0  0  0  0  0  0  0  0
   12.5870    1.2750    0.0000 C   0  0  0  0  0  0  0  0  0  0  0  0
   13.8860    2.0250    0.0000 C   0  0  0  0  0  0  0  0  0  0  0  0
   13.8860    3.5250    0.0000 C   0  0  0  0  0  0  0  0  0  0  0  0
    9.9880    4.2750    0.0000 C   0  0  0  0  0  0  0  0  0  0  0  0
    7.3900    4.2750    0.0000 C   0  0  0  0  0  0  0  0  0  0  0  0
    6.0910    3.5250    0.0000 C   0  0  0  0  0  0  0  0  0  0  0  0
    4.7920    4.2750    0.0000 C   0  0  0  0  0  0  0  0  0  0  0  0
    6.0910    2.0250    0.0000 C   0  0  0  0  0  0  0  0  0  0  0  0
    4.7920    1.2750    0.0000 C   0  0  0  0  0  0  0  0  0  0  0  0
    3.4930    3.5250    0.0000 C   0  0  0  0  0  0  0  0  0  0  0  0
    3.4930    2.0250    0.0000 C   0  0  0  0  0  0  0  0  0  0  0  0
    3.4930    6.5250    0.0000 C   0  0  0  0  0  0  0  0  0  0  0  0
    3.4930   -0.9750    0.0000 C   0  0  0  0  0  0  0  0  0  0  0  0
    3.4930    8.0250    0.0000 C   0  0  0  0  0  0  0  0  0  0  0  0
    3.4930   -2.4750    0.0000 C   0  0  0  0  0  0  0  0  0  0  0  0
   11.2880    4.7250    0.0000 H   0  0  0  0  0  0  0  0  0  0  0  0
   10.8770    0.8970    0.0000 H   0  0  0  0  0  0  0  0  0  0  0  0
   10.1060    2.2330    0.0000 H   0  0  0  0  0  0  0  0  0  0  0  0
   13.3580    0.3550    0.0000 H   0  0  0  0  0  0  0  0  0  0  0  0
   11.8150    0.3550    0.0000 H   0  0  0  0  0  0  0  0  0  0  0  0
   15.0670    2.2330    0.0000 H   0  0  0  0  0  0  0  0  0  0  0  0
   14.2960    0.8970    0.0000 H   0  0  0  0  0  0  0  0  0  0  0  0
   14.2960    4.6520    0.0000 H   0  0  0  0  0  0  0  0  0  0  0  0
   15.0670    3.3160    0.0000 H   0  0  0  0  0  0  0  0  0  0  0  0
   12.5870    5.4750    0.0000 H   0  0  0  0  0  0  0  0  0  0  0  0
    9.2170    5.1940    0.0000 H   0  0  0  0  0  0  0  0  0  0  0  0
   10.7600    5.1940    0.0000 H   0  0  0  0  0  0  0  0  0  0  0  0
    8.6890    2.3250    0.0000 H   0  0  0  0  0  0  0  0  0  0  0  0
    7.1310    1.4250    0.0000 H   0  0  0  0  0  0  0  0  0  0  0  0
    2.4540    4.1250    0.0000 H   0  0  0  0  0  0  0  0  0  0  0  0
    2.4540    1.4250    0.0000 H   0  0  0  0  0  0  0  0  0  0  0  0
    2.3120    6.7330    0.0000 H   0  0  0  0  0  0  0  0  0  0  0  0
    3.0830    5.3970    0.0000 H   0  0  0  0  0  0  0  0  0  0  0  0
    2.3120   -1.1840    0.0000 H   0  0  0  0  0  0  0  0  0  0  0  0
    3.0830    0.1520    0.0000 H   0  0  0  0  0  0  0  0  0  0  0  0
  1 27  1  0  0  0  0
  2 27  1  0  0  0  0
  3 27  1  0  0  0  0
  4 28  1  0  0  0  0
  5 28  1  0  0  0  0
  6 28  1  0  0  0  0
  7 18  2  0  0  0  0
  8 20  1  0  0  0  0
  8 25  1  0  0  0  0
  9 22  1  0  0  0  0
  9 26  1  0  0  0  0
 10 12  1  0  0  0  0
 10 16  1  0  0  0  0
 10 38  1  0  0  0  0
 11 17  1  0  0  0  0
 11 18  1  0  0  0  0
 11 41  1  0  0  0  0
 12 13  1  0  0  0  0
 12 17  1  6  0  0  0
 12 29  1  1  0  0  0
 13 14  1  0  0  0  0
 13 30  1  0  0  0  0
 13 31  1  0  0  0  0
 14 15  1  0  0  0  0
 14 32  1  0  0  0  0
 14 33  1  0  0  0  0
 15 16  1  0  0  0  0
 15 34  1  0  0  0  0
 15 35  1  0  0  0  0
 16 36  1  0  0  0  0
 16 37  1  0  0  0  0
 17 39  1  0  0  0  0
 17 40  1  0  0  0  0
 18 19  1  0  0  0  0
 19 20  1  0  0  0  0
 19 21  2  0  0  0  0
 20 23  2  0  0  0  0
 21 22  1  0  0  0  0
 21 42  1  0  0  0  0
 22 24  2  0  0  0  0
 23 24  1  0  0  0  0
 23 43  1  0  0  0  0
 24 44  1  0  0  0  0
 25 27  1  0  0  0  0
 25 45  1  0  0  0  0
 25 46  1  0  0  0  0
 26 28  1  0  0  0  0
 26 47  1  0  0  0  0
 26 48  1  0  0  0  0
M  END
$$$$
halofantrine
  MOE2018           2D

 63 65  0  0  1  0  0  0  0  0999 V2000
    1.5940    8.3000    0.0000 Cl  0  0  0  0  0  0  0  0  0  0  0  0
   -3.6020    8.3000    0.0000 Cl  0  0  0  0  0  0  0  0  0  0  0  0
   -4.3520    2.0990    0.0000 F   0  0  0  0  0  0  0  0  0  0  0  0
   -2.8520   -0.4990    0.0000 F   0  0  0  0  0  0  0  0  0  0  0  0
   -4.9010    0.0500    0.0000 F   0  0  0  0  0  0  0  0  0  0  0  0
    2.8930    1.5500    0.0000 O   0  0  0  0  0  0  0  0  0  0  0  0
    6.7900    3.8000    0.0000 N   0  0  0  0  0  0  0  0  0  0  0  0
    5.4910    3.0500    0.0000 C   0  0  0  0  0  0  0  0  0  0  0  0
    4.1920    3.8000    0.0000 C   0  0  0  0  0  0  0  0  0  0  0  0
    2.8930    3.0500    0.0000 C   0  0  1  0  0  0  0  0  0  0  0  0
    6.7900    5.3000    0.0000 C   0  0  0  0  0  0  0  0  0  0  0  0
    8.0890    3.0500    0.0000 C   0  0  0  0  0  0  0  0  0  0  0  0
    1.5940    3.8000    0.0000 C   0  0  0  0  0  0  0  0  0  0  0  0
    8.0890    6.0500    0.0000 C   0  0  0  0  0  0  0  0  0  0  0  0
    8.0890    1.5500    0.0000 C   0  0  0  0  0  0  0  0  0  0  0  0
    0.2950    3.0500    0.0000 C   0  0  0  0  0  0  0  0  0  0  0  0
   -1.0040    3.8000    0.0000 C   0  0  0  0  0  0  0  0  0  0  0  0
    1.5940    5.3000    0.0000 C   0  0  0  0  0  0  0  0  0  0  0  0
   -1.0040    5.3000    0.0000 C   0  0  0  0  0  0  0  0  0  0  0  0
    0.2950    6.0500    0.0000 C   0  0  0  0  0  0  0  0  0  0  0  0
    8.0890    7.5500    0.0000 C   0  0  0  0  0  0  0  0  0  0  0  0
    9.3880    0.8000    0.0000 C   0  0  0  0  0  0  0  0  0  0  0  0
    0.2950    1.5500    0.0000 C   0  0  0  0  0  0  0  0  0  0  0  0
   -2.3030    3.0500    0.0000 C   0  0  0  0  0  0  0  0  0  0  0  0
   -2.3030    1.5500    0.0000 C   0  0  0  0  0  0  0  0  0  0  0  0
   -2.3030    6.0500    0.0000 C   0  0  0  0  0  0  0  0  0  0  0  0
   -1.0040    0.8000    0.0000 C   0  0  0  0  0  0  0  0  0  0  0  0
    0.2950    7.5500    0.0000 C   0  0  0  0  0  0  0  0  0  0  0  0
    9.3880    8.3000    0.0000 C   0  0  0  0  0  0  0  0  0  0  0  0
    9.3880   -0.7000    0.0000 C   0  0  0  0  0  0  0  0  0  0  0  0
   -2.3030    7.5500    0.0000 C   0  0  0  0  0  0  0  0  0  0  0  0
   -1.0040    8.3000    0.0000 C   0  0  0  0  0  0  0  0  0  0  0  0
   -3.6020    0.8000    0.0000 C   0  0  0  0  0  0  0  0  0  0  0  0
    4.7200    2.1310    0.0000 H   0  0  0  0  0  0  0  0  0  0  0  0
    6.2630    2.1310    0.0000 H   0  0  0  0  0  0  0  0  0  0  0  0
    3.4210    4.7190    0.0000 H   0  0  0  0  0  0  0  0  0  0  0  0
    4.9640    4.7190    0.0000 H   0  0  0  0  0  0  0  0  0  0  0  0
    3.9320    2.4500    0.0000 H   0  0  0  0  0  0  0  0  0  0  0  0
    6.3800    6.4280    0.0000 H   0  0  0  0  0  0  0  0  0  0  0  0
    5.6090    5.0920    0.0000 H   0  0  0  0  0  0  0  0  0  0  0  0
    9.2710    2.8420    0.0000 H   0  0  0  0  0  0  0  0  0  0  0  0
    8.5000    4.1780    0.0000 H   0  0  0  0  0  0  0  0  0  0  0  0
    9.2710    6.2580    0.0000 H   0  0  0  0  0  0  0  0  0  0  0  0
    8.5000    4.9220    0.0000 H   0  0  0  0  0  0  0  0  0  0  0  0
    7.6790    0.4220    0.0000 H   0  0  0  0  0  0  0  0  0  0  0  0
    6.9080    1.7580    0.0000 H   0  0  0  0  0  0  0  0  0  0  0  0
    2.6330    5.9000    0.0000 H   0  0  0  0  0  0  0  0  0  0  0  0
    7.6790    8.6780    0.0000 H   0  0  0  0  0  0  0  0  0  0  0  0
    6.9080    7.3420    0.0000 H   0  0  0  0  0  0  0  0  0  0  0  0
   10.5700    0.5920    0.0000 H   0  0  0  0  0  0  0  0  0  0  0  0
    9.7990    1.9280    0.0000 H   0  0  0  0  0  0  0  0  0  0  0  0
    1.3340    0.9500    0.0000 H   0  0  0  0  0  0  0  0  0  0  0  0
   -3.3420    3.6500    0.0000 H   0  0  0  0  0  0  0  0  0  0  0  0
    3.9320    0.9500    0.0000 H   0  0  0  0  0  0  0  0  0  0  0  0
   -3.3420    5.4500    0.0000 H   0  0  0  0  0  0  0  0  0  0  0  0
   -1.0040   -0.4000    0.0000 H   0  0  0  0  0  0  0  0  0  0  0  0
    9.9880    7.2610    0.0000 H   0  0  0  0  0  0  0  0  0  0  0  0
   10.4280    8.9000    0.0000 H   0  0  0  0  0  0  0  0  0  0  0  0
    8.7880    9.3390    0.0000 H   0  0  0  0  0  0  0  0  0  0  0  0
    8.1880   -0.7000    0.0000 H   0  0  0  0  0  0  0  0  0  0  0  0
    9.3880   -1.9000    0.0000 H   0  0  0  0  0  0  0  0  0  0  0  0
   10.5880   -0.7000    0.0000 H   0  0  0  0  0  0  0  0  0  0  0  0
   -1.0040    9.5000    0.0000 H   0  0  0  0  0  0  0  0  0  0  0  0
  1 28  1  0  0  0  0
  2 31  1  0  0  0  0
  3 33  1  0  0  0  0
  4 33  1  0  0  0  0
  5 33  1  0  0  0  0
 10  6  1  6  0  0  0
  6 54  1  0  0  0  0
  7  8  1  0  0  0  0
  7 11  1  0  0  0  0
  7 12  1  0  0  0  0
  8  9  1  0  0  0  0
  8 34  1  0  0  0  0
  8 35  1  0  0  0  0
  9 10  1  0  0  0  0
  9 36  1  0  0  0  0
  9 37  1  0  0  0  0
 10 13  1  0  0  0  0
 10 38  1  1  0  0  0
 11 14  1  0  0  0  0
 11 39  1  0  0  0  0
 11 40  1  0  0  0  0
 12 15  1  0  0  0  0
 12 41  1  0  0  0  0
 12 42  1  0  0  0  0
 13 16  1  0  0  0  0
 13 18  2  0  0  0  0
 14 21  1  0  0  0  0
 14 43  1  0  0  0  0
 14 44  1  0  0  0  0
 15 22  1  0  0  0  0
 15 45  1  0  0  0  0
 15 46  1  0  0  0  0
 16 17  1  0  0  0  0
 16 23  2  0  0  0  0
 17 19  1  0  0  0  0
 17 24  2  0  0  0  0
 18 20  1  0  0  0  0
 18 47  1  0  0  0  0
 19 20  1  0  0  0  0
 19 26  2  0  0  0  0
 20 28  2  0  0  0  0
 21 29  1  0  0  0  0
 21 48  1  0  0  0  0
 21 49  1  0  0  0  0
 22 30  1  0  0  0  0
 22 50  1  0  0  0  0
 22 51  1  0  0  0  0
 23 27  1  0  0  0  0
 23 52  1  0  0  0  0
 24 25  1  0  0  0  0
 24 53  1  0  0  0  0
 25 27  2  0  0  0  0
 25 33  1  0  0  0  0
 26 31  1  0  0  0  0
 26 55  1  0  0  0  0
 27 56  1  0  0  0  0
 28 32  1  0  0  0  0
 29 57  1  0  0  0  0
 29 58  1  0  0  0  0
 29 59  1  0  0  0  0
 30 60  1  0  0  0  0
 30 61  1  0  0  0  0
 30 62  1  0  0  0  0
 31 32  2  0  0  0  0
 32 63  1  0  0  0  0
M  END
$$$$
Haloperidol
  MOE2018           2D

 49 51  0  0  0  0  0  0  0  0999 V2000
    0.0000    0.0000    0.0000 Cl  0  0  0  0  0  0  0  0  0  0  0  0
   18.9900   -4.5000    0.0000 F   0  0  0  0  0  0  0  0  0  0  0  0
    5.2500    1.2990    0.0000 O   0  0  0  0  0  0  0  0  0  0  0  0
   13.7940    0.0000    0.0000 O   0  0  0  0  0  0  0  0  0  0  0  0
    8.5980   -1.5000    0.0000 N   0  0  0  0  0  0  0  0  0  0  0  0
    6.0000    0.0000    0.0000 C   0  0  0  0  0  0  0  0  0  0  0  0
    7.2990    0.7500    0.0000 C   0  0  0  0  0  0  0  0  0  0  0  0
    6.0000   -1.5000    0.0000 C   0  0  0  0  0  0  0  0  0  0  0  0
    8.5980    0.0000    0.0000 C   0  0  0  0  0  0  0  0  0  0  0  0
    7.2990   -2.2500    0.0000 C   0  0  0  0  0  0  0  0  0  0  0  0
    9.8970   -2.2500    0.0000 C   0  0  0  0  0  0  0  0  0  0  0  0
    4.5000    0.0000    0.0000 C   0  0  0  0  0  0  0  0  0  0  0  0
   11.1960   -1.5000    0.0000 C   0  0  0  0  0  0  0  0  0  0  0  0
    3.7500    1.2990    0.0000 C   0  0  0  0  0  0  0  0  0  0  0  0
    3.7500   -1.2990    0.0000 C   0  0  0  0  0  0  0  0  0  0  0  0
   12.4950   -2.2500    0.0000 C   0  0  0  0  0  0  0  0  0  0  0  0
    2.2500    1.2990    0.0000 C   0  0  0  0  0  0  0  0  0  0  0  0
    2.2500   -1.2990    0.0000 C   0  0  0  0  0  0  0  0  0  0  0  0
   13.7940   -1.5000    0.0000 C   0  0  0  0  0  0  0  0  0  0  0  0
    1.5000    0.0000    0.0000 C   0  0  0  0  0  0  0  0  0  0  0  0
   15.0930   -2.2500    0.0000 C   0  0  0  0  0  0  0  0  0  0  0  0
   15.0930   -3.7500    0.0000 C   0  0  0  0  0  0  0  0  0  0  0  0
   16.3920   -1.5000    0.0000 C   0  0  0  0  0  0  0  0  0  0  0  0
   16.3920   -4.5000    0.0000 C   0  0  0  0  0  0  0  0  0  0  0  0
   17.6910   -2.2500    0.0000 C   0  0  0  0  0  0  0  0  0  0  0  0
   17.6910   -3.7500    0.0000 C   0  0  0  0  0  0  0  0  0  0  0  0
    8.0700    1.6690    0.0000 H   0  0  0  0  0  0  0  0  0  0  0  0
    6.5280    1.6690    0.0000 H   0  0  0  0  0  0  0  0  0  0  0  0
    5.5900   -2.6280    0.0000 H   0  0  0  0  0  0  0  0  0  0  0  0
    4.8180   -1.2920    0.0000 H   0  0  0  0  0  0  0  0  0  0  0  0
    9.7800   -0.2080    0.0000 H   0  0  0  0  0  0  0  0  0  0  0  0
    9.0090    1.1280    0.0000 H   0  0  0  0  0  0  0  0  0  0  0  0
    8.0700   -3.1690    0.0000 H   0  0  0  0  0  0  0  0  0  0  0  0
    6.5280   -3.1690    0.0000 H   0  0  0  0  0  0  0  0  0  0  0  0
   10.6680   -3.1690    0.0000 H   0  0  0  0  0  0  0  0  0  0  0  0
    9.1260   -3.1690    0.0000 H   0  0  0  0  0  0  0  0  0  0  0  0
   11.9670   -0.5810    0.0000 H   0  0  0  0  0  0  0  0  0  0  0  0
   10.4250   -0.5810    0.0000 H   0  0  0  0  0  0  0  0  0  0  0  0
    5.8500    2.3380    0.0000 H   0  0  0  0  0  0  0  0  0  0  0  0
    4.3500    2.3380    0.0000 H   0  0  0  0  0  0  0  0  0  0  0  0
    4.3500   -2.3380    0.0000 H   0  0  0  0  0  0  0  0  0  0  0  0
   13.2670   -3.1690    0.0000 H   0  0  0  0  0  0  0  0  0  0  0  0
   11.7240   -3.1690    0.0000 H   0  0  0  0  0  0  0  0  0  0  0  0
    1.6500    2.3380    0.0000 H   0  0  0  0  0  0  0  0  0  0  0  0
    1.6500   -2.3380    0.0000 H   0  0  0  0  0  0  0  0  0  0  0  0
   14.0540   -4.3500    0.0000 H   0  0  0  0  0  0  0  0  0  0  0  0
   16.3920   -0.3000    0.0000 H   0  0  0  0  0  0  0  0  0  0  0  0
   16.3920   -5.7000    0.0000 H   0  0  0  0  0  0  0  0  0  0  0  0
   18.7310   -1.6500    0.0000 H   0  0  0  0  0  0  0  0  0  0  0  0
  1 20  1  0  0  0  0
  2 26  1  0  0  0  0
  3  6  1  0  0  0  0
  3 39  1  0  0  0  0
  4 19  2  0  0  0  0
  5  9  1  0  0  0  0
  5 10  1  0  0  0  0
  5 11  1  0  0  0  0
  6  7  1  0  0  0  0
  6  8  1  0  0  0  0
  6 12  1  0  0  0  0
  7  9  1  0  0  0  0
  7 27  1  0  0  0  0
  7 28  1  0  0  0  0
  8 10  1  0  0  0  0
  8 29  1  0  0  0  0
  8 30  1  0  0  0  0
  9 31  1  0  0  0  0
  9 32  1  0  0  0  0
 10 33  1  0  0  0  0
 10 34  1  0  0  0  0
 11 13  1  0  0  0  0
 11 35  1  0  0  0  0
 11 36  1  0  0  0  0
 12 14  2  0  0  0  0
 12 15  1  0  0  0  0
 13 16  1  0  0  0  0
 13 37  1  0  0  0  0
 13 38  1  0  0  0  0
 14 17  1  0  0  0  0
 14 40  1  0  0  0  0
 15 18  2  0  0  0  0
 15 41  1  0  0  0  0
 16 19  1  0  0  0  0
 16 42  1  0  0  0  0
 16 43  1  0  0  0  0
 17 20  2  0  0  0  0
 17 44  1  0  0  0  0
 18 20  1  0  0  0  0
 18 45  1  0  0  0  0
 19 21  1  0  0  0  0
 21 22  2  0  0  0  0
 21 23  1  0  0  0  0
 22 24  1  0  0  0  0
 22 46  1  0  0  0  0
 23 25  2  0  0  0  0
 23 47  1  0  0  0  0
 24 26  2  0  0  0  0
 24 48  1  0  0  0  0
 25 26  1  0  0  0  0
 25 49  1  0  0  0  0
M  END
$$$$
Ibutilide
  MOE2018           2D

 62 62  0  0  1  0  0  0  0  0999 V2000
   -1.8370   -6.8570    0.0000 S   0  0  0  0  0  0  0  0  0  0  0  0
    5.6630   -6.8570    0.0000 O   0  0  0  0  0  0  0  0  0  0  0  0
   -0.5380   -7.6070    0.0000 O   0  0  0  0  0  0  0  0  0  0  0  0
   -3.1360   -6.1070    0.0000 O   0  0  0  0  0  0  0  0  0  0  0  0
    9.4130   -2.9590    0.0000 N   0  0  2  0  0  0  0  0  0  0  0  0
   -1.0870   -5.5580    0.0000 N   0  0  0  0  0  0  0  0  0  0  0  0
   10.1630   -4.2580    0.0000 C   0  0  0  0  0  0  0  0  0  0  0  0
    7.9130   -2.9590    0.0000 C   0  0  0  0  0  0  0  0  0  0  0  0
   11.6630   -4.2580    0.0000 C   0  0  0  0  0  0  0  0  0  0  0  0
    7.1630   -4.2580    0.0000 C   0  0  0  0  0  0  0  0  0  0  0  0
   12.4130   -5.5580    0.0000 C   0  0  0  0  0  0  0  0  0  0  0  0
    5.6630   -4.2580    0.0000 C   0  0  0  0  0  0  0  0  0  0  0  0
   13.9130   -5.5580    0.0000 C   0  0  0  0  0  0  0  0  0  0  0  0
   10.1630   -1.6600    0.0000 C   0  0  0  0  0  0  0  0  0  0  0  0
    4.9130   -5.5580    0.0000 C   0  0  2  0  0  0  0  0  0  0  0  0
   14.6630   -6.8570    0.0000 C   0  0  0  0  0  0  0  0  0  0  0  0
    3.4130   -5.5580    0.0000 C   0  0  0  0  0  0  0  0  0  0  0  0
   16.1630   -6.8570    0.0000 C   0  0  0  0  0  0  0  0  0  0  0  0
    9.4130   -0.3610    0.0000 C   0  0  0  0  0  0  0  0  0  0  0  0
    2.6630   -4.2580    0.0000 C   0  0  0  0  0  0  0  0  0  0  0  0
    2.6630   -6.8570    0.0000 C   0  0  0  0  0  0  0  0  0  0  0  0
   16.9130   -8.1560    0.0000 C   0  0  0  0  0  0  0  0  0  0  0  0
    1.1630   -4.2580    0.0000 C   0  0  0  0  0  0  0  0  0  0  0  0
    1.1630   -6.8570    0.0000 C   0  0  0  0  0  0  0  0  0  0  0  0
    0.4130   -5.5580    0.0000 C   0  0  0  0  0  0  0  0  0  0  0  0
   -2.5870   -8.1560    0.0000 C   0  0  0  0  0  0  0  0  0  0  0  0
   10.3710   -5.4400    0.0000 H   0  0  0  0  0  0  0  0  0  0  0  0
    9.0350   -4.6690    0.0000 H   0  0  0  0  0  0  0  0  0  0  0  0
    6.7850   -2.5490    0.0000 H   0  0  0  0  0  0  0  0  0  0  0  0
    8.1210   -1.7780    0.0000 H   0  0  0  0  0  0  0  0  0  0  0  0
   12.7900   -3.8480    0.0000 H   0  0  0  0  0  0  0  0  0  0  0  0
   11.4540   -3.0770    0.0000 H   0  0  0  0  0  0  0  0  0  0  0  0
    6.9540   -5.4400    0.0000 H   0  0  0  0  0  0  0  0  0  0  0  0
    8.2900   -4.6690    0.0000 H   0  0  0  0  0  0  0  0  0  0  0  0
   12.6210   -6.7390    0.0000 H   0  0  0  0  0  0  0  0  0  0  0  0
   11.2850   -5.9680    0.0000 H   0  0  0  0  0  0  0  0  0  0  0  0
    4.5350   -3.8480    0.0000 H   0  0  0  0  0  0  0  0  0  0  0  0
    5.8710   -3.0770    0.0000 H   0  0  0  0  0  0  0  0  0  0  0  0
   15.0400   -5.1470    0.0000 H   0  0  0  0  0  0  0  0  0  0  0  0
   13.7040   -4.3760    0.0000 H   0  0  0  0  0  0  0  0  0  0  0  0
   11.0820   -0.8890    0.0000 H   0  0  0  0  0  0  0  0  0  0  0  0
   11.0820   -2.4320    0.0000 H   0  0  0  0  0  0  0  0  0  0  0  0
    6.1130   -5.5580    0.0000 H   0  0  0  0  0  0  0  0  0  0  0  0
   14.8710   -8.0380    0.0000 H   0  0  0  0  0  0  0  0  0  0  0  0
   13.5350   -7.2670    0.0000 H   0  0  0  0  0  0  0  0  0  0  0  0
   17.2900   -6.4460    0.0000 H   0  0  0  0  0  0  0  0  0  0  0  0
   15.9540   -5.6750    0.0000 H   0  0  0  0  0  0  0  0  0  0  0  0
   10.4520    0.2390    0.0000 H   0  0  0  0  0  0  0  0  0  0  0  0
    8.8130    0.6780    0.0000 H   0  0  0  0  0  0  0  0  0  0  0  0
    8.3740   -0.9610    0.0000 H   0  0  0  0  0  0  0  0  0  0  0  0
    3.2630   -3.2190    0.0000 H   0  0  0  0  0  0  0  0  0  0  0  0
    3.2630   -7.8960    0.0000 H   0  0  0  0  0  0  0  0  0  0  0  0
   15.8740   -8.7560    0.0000 H   0  0  0  0  0  0  0  0  0  0  0  0
   17.5130   -9.1950    0.0000 H   0  0  0  0  0  0  0  0  0  0  0  0
   17.9520   -7.5560    0.0000 H   0  0  0  0  0  0  0  0  0  0  0  0
    5.0630   -7.8960    0.0000 H   0  0  0  0  0  0  0  0  0  0  0  0
    0.5630   -3.2190    0.0000 H   0  0  0  0  0  0  0  0  0  0  0  0
    0.5630   -7.8960    0.0000 H   0  0  0  0  0  0  0  0  0  0  0  0
   -1.6870   -4.5180    0.0000 H   0  0  0  0  0  0  0  0  0  0  0  0
   -3.6260   -7.5560    0.0000 H   0  0  0  0  0  0  0  0  0  0  0  0
   -3.1870   -9.1950    0.0000 H   0  0  0  0  0  0  0  0  0  0  0  0
   -1.5480   -8.7560    0.0000 H   0  0  0  0  0  0  0  0  0  0  0  0
  1  3  2  0  0  0  0
  1  4  2  0  0  0  0
  1  6  1  0  0  0  0
  1 26  1  0  0  0  0
 15  2  1  1  0  0  0
  2 56  1  0  0  0  0
  5  7  1  6  0  0  0
  5  8  1  0  0  0  0
  5 14  1  0  0  0  0
  6 25  1  0  0  0  0
  6 59  1  0  0  0  0
  7  9  1  0  0  0  0
  7 27  1  0  0  0  0
  7 28  1  0  0  0  0
  8 10  1  0  0  0  0
  8 29  1  0  0  0  0
  8 30  1  0  0  0  0
  9 11  1  0  0  0  0
  9 31  1  0  0  0  0
  9 32  1  0  0  0  0
 10 12  1  0  0  0  0
 10 33  1  0  0  0  0
 10 34  1  0  0  0  0
 11 13  1  0  0  0  0
 11 35  1  0  0  0  0
 11 36  1  0  0  0  0
 12 15  1  0  0  0  0
 12 37  1  0  0  0  0
 12 38  1  0  0  0  0
 13 16  1  0  0  0  0
 13 39  1  0  0  0  0
 13 40  1  0  0  0  0
 14 19  1  0  0  0  0
 14 41  1  0  0  0  0
 14 42  1  0  0  0  0
 15 17  1  0  0  0  0
 15 43  1  6  0  0  0
 16 18  1  0  0  0  0
 16 44  1  0  0  0  0
 16 45  1  0  0  0  0
 17 20  1  0  0  0  0
 17 21  2  0  0  0  0
 18 22  1  0  0  0  0
 18 46  1  0  0  0  0
 18 47  1  0  0  0  0
 19 48  1  0  0  0  0
 19 49  1  0  0  0  0
 19 50  1  0  0  0  0
 20 23  2  0  0  0  0
 20 51  1  0  0  0  0
 21 24  1  0  0  0  0
 21 52  1  0  0  0  0
 22 53  1  0  0  0  0
 22 54  1  0  0  0  0
 22 55  1  0  0  0  0
 23 25  1  0  0  0  0
 23 57  1  0  0  0  0
 24 25  2  0  0  0  0
 24 58  1  0  0  0  0
 26 60  1  0  0  0  0
 26 61  1  0  0  0  0
 26 62  1  0  0  0  0
M  END
$$$$
Loratadine
  MOE2018           2D

 50 53  0  0  0  0  0  0  0  0999 V2000
    3.0790   -7.0000    0.0000 Cl  0  0  0  0  0  0  0  0  0  0  0  0
   11.8070   -0.0500    0.0000 O   0  0  0  0  0  0  0  0  0  0  0  0
   11.8070   -2.6480    0.0000 O   0  0  0  0  0  0  0  0  0  0  0  0
    9.5570   -1.3490    0.0000 N   0  0  0  0  0  0  0  0  0  0  0  0
    5.4270    1.1020    0.0000 N   0  0  0  0  0  0  0  0  0  0  0  0
    6.5570   -1.3490    0.0000 C   0  0  0  0  0  0  0  0  0  0  0  0
    7.3070   -0.0500    0.0000 C   0  0  0  0  0  0  0  0  0  0  0  0
    7.3070   -2.6480    0.0000 C   0  0  0  0  0  0  0  0  0  0  0  0
    5.0570   -1.3490    0.0000 C   0  0  0  0  0  0  0  0  0  0  0  0
    8.8070   -0.0500    0.0000 C   0  0  0  0  0  0  0  0  0  0  0  0
    8.8070   -2.6480    0.0000 C   0  0  0  0  0  0  0  0  0  0  0  0
    4.4060   -2.7000    0.0000 C   0  0  0  0  0  0  0  0  0  0  0  0
    4.4070    0.0020    0.0000 C   0  0  0  0  0  0  0  0  0  0  0  0
    2.9430   -3.0340    0.0000 C   0  0  0  0  0  0  0  0  0  0  0  0
    1.7700   -2.1000    0.0000 C   0  0  0  0  0  0  0  0  0  0  0  0
    1.7710   -0.6000    0.0000 C   0  0  0  0  0  0  0  0  0  0  0  0
    2.9440    0.3350    0.0000 C   0  0  0  0  0  0  0  0  0  0  0  0
    5.4260   -3.8000    0.0000 C   0  0  0  0  0  0  0  0  0  0  0  0
   11.0570   -1.3490    0.0000 C   0  0  0  0  0  0  0  0  0  0  0  0
    2.5010   -4.4680    0.0000 C   0  0  0  0  0  0  0  0  0  0  0  0
    2.5020    1.7690    0.0000 C   0  0  0  0  0  0  0  0  0  0  0  0
    4.9840   -5.2330    0.0000 C   0  0  0  0  0  0  0  0  0  0  0  0
    3.5210   -5.5670    0.0000 C   0  0  0  0  0  0  0  0  0  0  0  0
    3.5220    2.8680    0.0000 C   0  0  0  0  0  0  0  0  0  0  0  0
    4.9840    2.5350    0.0000 C   0  0  0  0  0  0  0  0  0  0  0  0
   13.3070   -0.0490    0.0000 C   0  0  0  0  0  0  0  0  0  0  0  0
   14.0570    1.2500    0.0000 C   0  0  0  0  0  0  0  0  0  0  0  0
    7.5150    1.1320    0.0000 H   0  0  0  0  0  0  0  0  0  0  0  0
    6.1790    0.3600    0.0000 H   0  0  0  0  0  0  0  0  0  0  0  0
    7.5160   -3.8300    0.0000 H   0  0  0  0  0  0  0  0  0  0  0  0
    6.1800   -3.0590    0.0000 H   0  0  0  0  0  0  0  0  0  0  0  0
    9.9350    0.3610    0.0000 H   0  0  0  0  0  0  0  0  0  0  0  0
    8.5990    1.1320    0.0000 H   0  0  0  0  0  0  0  0  0  0  0  0
    9.9350   -3.0580    0.0000 H   0  0  0  0  0  0  0  0  0  0  0  0
    8.5990   -3.8300    0.0000 H   0  0  0  0  0  0  0  0  0  0  0  0
    0.6000   -1.8320    0.0000 H   0  0  0  0  0  0  0  0  0  0  0  0
    1.2500   -3.1810    0.0000 H   0  0  0  0  0  0  0  0  0  0  0  0
    1.2510    0.4820    0.0000 H   0  0  0  0  0  0  0  0  0  0  0  0
    0.6010   -0.8660    0.0000 H   0  0  0  0  0  0  0  0  0  0  0  0
    6.5960   -3.5330    0.0000 H   0  0  0  0  0  0  0  0  0  0  0  0
    1.3310   -4.7350    0.0000 H   0  0  0  0  0  0  0  0  0  0  0  0
    1.3320    2.0350    0.0000 H   0  0  0  0  0  0  0  0  0  0  0  0
    5.8000   -6.1130    0.0000 H   0  0  0  0  0  0  0  0  0  0  0  0
    3.1680    4.0150    0.0000 H   0  0  0  0  0  0  0  0  0  0  0  0
    5.8000    3.4150    0.0000 H   0  0  0  0  0  0  0  0  0  0  0  0
   14.4350   -0.4600    0.0000 H   0  0  0  0  0  0  0  0  0  0  0  0
   13.0990   -1.2310    0.0000 H   0  0  0  0  0  0  0  0  0  0  0  0
   15.0960    0.6500    0.0000 H   0  0  0  0  0  0  0  0  0  0  0  0
   14.6570    2.2890    0.0000 H   0  0  0  0  0  0  0  0  0  0  0  0
   13.0180    1.8500    0.0000 H   0  0  0  0  0  0  0  0  0  0  0  0
  1 23  1  0  0  0  0
  2 19  1  0  0  0  0
  2 26  1  0  0  0  0
  3 19  2  0  0  0  0
  4 10  1  0  0  0  0
  4 11  1  0  0  0  0
  4 19  1  0  0  0  0
  5 13  2  0  0  0  0
  5 25  1  0  0  0  0
  6  7  1  0  0  0  0
  6  8  1  0  0  0  0
  6  9  2  0  0  0  0
  7 10  1  0  0  0  0
  7 28  1  0  0  0  0
  7 29  1  0  0  0  0
  8 11  1  0  0  0  0
  8 30  1  0  0  0  0
  8 31  1  0  0  0  0
  9 12  1  0  0  0  0
  9 13  1  0  0  0  0
 10 32  1  0  0  0  0
 10 33  1  0  0  0  0
 11 34  1  0  0  0  0
 11 35  1  0  0  0  0
 12 14  2  0  0  0  0
 12 18  1  0  0  0  0
 13 17  1  0  0  0  0
 14 15  1  0  0  0  0
 14 20  1  0  0  0  0
 15 16  1  0  0  0  0
 15 36  1  0  0  0  0
 15 37  1  0  0  0  0
 16 17  1  0  0  0  0
 16 38  1  0  0  0  0
 16 39  1  0  0  0  0
 17 21  2  0  0  0  0
 18 22  2  0  0  0  0
 18 40  1  0  0  0  0
 20 23  2  0  0  0  0
 20 41  1  0  0  0  0
 21 24  1  0  0  0  0
 21 42  1  0  0  0  0
 22 23  1  0  0  0  0
 22 43  1  0  0  0  0
 24 25  2  0  0  0  0
 24 44  1  0  0  0  0
 25 45  1  0  0  0  0
 26 27  1  0  0  0  0
 26 46  1  0  0  0  0
 26 47  1  0  0  0  0
 27 48  1  0  0  0  0
 27 49  1  0  0  0  0
 27 50  1  0  0  0  0
M  END
$$$$
Methadone
  MOE2018           2D

 50 51  0  0  1  0  0  0  0  0999 V2000
    2.4840   -4.3020    0.0000 O   0  0  0  0  0  0  0  0  0  0  0  0
    6.0540    0.0290    0.0000 N   0  0  0  0  0  0  0  0  0  0  0  0
    2.4840   -1.7040    0.0000 C   0  0  0  0  0  0  0  0  0  0  0  0
    3.5450   -0.6440    0.0000 C   0  0  0  0  0  0  0  0  0  0  0  0
    4.9930   -1.0320    0.0000 C   0  0  1  0  0  0  0  0  0  0  0  0
    1.7340   -0.4050    0.0000 C   0  0  0  0  0  0  0  0  0  0  0  0
    1.1850   -2.4540    0.0000 C   0  0  0  0  0  0  0  0  0  0  0  0
    3.2340   -3.0030    0.0000 C   0  0  0  0  0  0  0  0  0  0  0  0
    5.3820   -2.4810    0.0000 C   0  0  0  0  0  0  0  0  0  0  0  0
    4.7340   -3.0030    0.0000 C   0  0  0  0  0  0  0  0  0  0  0  0
    2.4840    0.8940    0.0000 C   0  0  0  0  0  0  0  0  0  0  0  0
    1.1850   -3.9540    0.0000 C   0  0  0  0  0  0  0  0  0  0  0  0
    0.2340   -0.4050    0.0000 C   0  0  0  0  0  0  0  0  0  0  0  0
   -0.1140   -1.7040    0.0000 C   0  0  0  0  0  0  0  0  0  0  0  0
    7.5030   -0.3590    0.0000 C   0  0  0  0  0  0  0  0  0  0  0  0
    5.6660    1.4780    0.0000 C   0  0  0  0  0  0  0  0  0  0  0  0
    5.4840   -4.3020    0.0000 C   0  0  0  0  0  0  0  0  0  0  0  0
    1.7340    2.1930    0.0000 C   0  0  0  0  0  0  0  0  0  0  0  0
   -0.1140   -4.7040    0.0000 C   0  0  0  0  0  0  0  0  0  0  0  0
   -0.5160    0.8940    0.0000 C   0  0  0  0  0  0  0  0  0  0  0  0
   -1.4130   -2.4540    0.0000 C   0  0  0  0  0  0  0  0  0  0  0  0
    0.2340    2.1930    0.0000 C   0  0  0  0  0  0  0  0  0  0  0  0
   -1.4130   -3.9540    0.0000 C   0  0  0  0  0  0  0  0  0  0  0  0
    4.0520    0.4440    0.0000 H   0  0  0  0  0  0  0  0  0  0  0  0
    2.5620    0.0450    0.0000 H   0  0  0  0  0  0  0  0  0  0  0  0
    6.1530   -1.3420    0.0000 H   0  0  0  0  0  0  0  0  0  0  0  0
    4.2230   -2.7910    0.0000 H   0  0  0  0  0  0  0  0  0  0  0  0
    5.6920   -3.6400    0.0000 H   0  0  0  0  0  0  0  0  0  0  0  0
    6.5410   -2.1700    0.0000 H   0  0  0  0  0  0  0  0  0  0  0  0
    5.8620   -2.5930    0.0000 H   0  0  0  0  0  0  0  0  0  0  0  0
    4.5260   -1.8210    0.0000 H   0  0  0  0  0  0  0  0  0  0  0  0
    3.6840    0.8940    0.0000 H   0  0  0  0  0  0  0  0  0  0  0  0
    1.7040   -4.2540    0.0000 H   0  0  0  0  0  0  0  0  0  0  0  0
   -0.0660   -0.9250    0.0000 H   0  0  0  0  0  0  0  0  0  0  0  0
   -0.1140   -1.1040    0.0000 H   0  0  0  0  0  0  0  0  0  0  0  0
    7.1920   -1.5180    0.0000 H   0  0  0  0  0  0  0  0  0  0  0  0
    8.6620   -0.6700    0.0000 H   0  0  0  0  0  0  0  0  0  0  0  0
    7.8140    0.8000    0.0000 H   0  0  0  0  0  0  0  0  0  0  0  0
    6.8250    1.7880    0.0000 H   0  0  0  0  0  0  0  0  0  0  0  0
    5.3550    2.6370    0.0000 H   0  0  0  0  0  0  0  0  0  0  0  0
    4.5070    1.1670    0.0000 H   0  0  0  0  0  0  0  0  0  0  0  0
    4.4450   -4.9020    0.0000 H   0  0  0  0  0  0  0  0  0  0  0  0
    6.0840   -5.3420    0.0000 H   0  0  0  0  0  0  0  0  0  0  0  0
    6.5230   -3.7020    0.0000 H   0  0  0  0  0  0  0  0  0  0  0  0
    2.3340    3.2320    0.0000 H   0  0  0  0  0  0  0  0  0  0  0  0
   -0.1140   -5.9040    0.0000 H   0  0  0  0  0  0  0  0  0  0  0  0
   -1.7160    0.8940    0.0000 H   0  0  0  0  0  0  0  0  0  0  0  0
   -2.4520   -1.8540    0.0000 H   0  0  0  0  0  0  0  0  0  0  0  0
   -0.3660    3.2320    0.0000 H   0  0  0  0  0  0  0  0  0  0  0  0
   -2.4520   -4.5540    0.0000 H   0  0  0  0  0  0  0  0  0  0  0  0
  1  8  2  0  0  0  0
  2  5  1  0  0  0  0
  2 15  1  0  0  0  0
  2 16  1  0  0  0  0
  3  4  1  0  0  0  0
  3  6  1  0  0  0  0
  3  7  1  0  0  0  0
  3  8  1  0  0  0  0
  4  5  1  0  0  0  0
  4 24  1  0  0  0  0
  4 25  1  0  0  0  0
  5  9  1  6  0  0  0
  5 26  1  1  0  0  0
  6 11  2  0  0  0  0
  6 13  1  0  0  0  0
  7 12  2  0  0  0  0
  7 14  1  0  0  0  0
  8 10  1  0  0  0  0
  9 27  1  0  0  0  0
  9 28  1  0  0  0  0
  9 29  1  0  0  0  0
 10 17  1  0  0  0  0
 10 30  1  0  0  0  0
 10 31  1  0  0  0  0
 11 18  1  0  0  0  0
 11 32  1  0  0  0  0
 12 19  1  0  0  0  0
 12 33  1  0  0  0  0
 13 20  2  0  0  0  0
 13 34  1  0  0  0  0
 14 21  2  0  0  0  0
 14 35  1  0  0  0  0
 15 36  1  0  0  0  0
 15 37  1  0  0  0  0
 15 38  1  0  0  0  0
 16 39  1  0  0  0  0
 16 40  1  0  0  0  0
 16 41  1  0  0  0  0
 17 42  1  0  0  0  0
 17 43  1  0  0  0  0
 17 44  1  0  0  0  0
 18 22  2  0  0  0  0
 18 45  1  0  0  0  0
 19 23  2  0  0  0  0
 19 46  1  0  0  0  0
 20 22  1  0  0  0  0
 20 47  1  0  0  0  0
 21 23  1  0  0  0  0
 21 48  1  0  0  0  0
 22 49  1  0  0  0  0
 23 50  1  0  0  0  0
M  END
$$$$
Mibefradil
  MOE2018           2D

 74 77  0  0  1  0  0  0  0  0999 V2000
    0.0000    0.0000    0.0000 F   0  0  0  0  0  0  0  0  0  0  0  0
    8.0490    2.0490    0.0000 O   0  0  0  0  0  0  0  0  0  0  0  0
    9.3480    4.2990    0.0000 O   0  0  0  0  0  0  0  0  0  0  0  0
    6.7500    5.7990    0.0000 O   0  0  0  0  0  0  0  0  0  0  0  0
   10.6470    0.5490    0.0000 N   0  0  2  0  0  0  0  0  0  0  0  0
   17.2140    1.1590    0.0000 N   0  0  0  0  0  0  0  0  0  0  0  0
   16.0000   -0.9430    0.0000 N   0  0  0  0  0  0  0  0  0  0  0  0
    6.7500    1.2990    0.0000 C   0  0  1  0  0  0  0  0  0  0  0  0
    6.0000    0.0000    0.0000 C   0  0  1  0  0  0  0  0  0  0  0  0
    6.0000    2.5980    0.0000 C   0  0  0  0  0  0  0  0  0  0  0  0
    6.7500   -1.2990    0.0000 C   0  0  0  0  0  0  0  0  0  0  0  0
    8.0490    0.5490    0.0000 C   0  0  0  0  0  0  0  0  0  0  0  0
    4.5000    0.0000    0.0000 C   0  0  0  0  0  0  0  0  0  0  0  0
    4.5000    2.5980    0.0000 C   0  0  0  0  0  0  0  0  0  0  0  0
    3.7500    1.2990    0.0000 C   0  0  0  0  0  0  0  0  0  0  0  0
    9.3480    1.2990    0.0000 C   0  0  0  0  0  0  0  0  0  0  0  0
    6.0000   -2.5980    0.0000 C   0  0  0  0  0  0  0  0  0  0  0  0
    8.2500   -1.2990    0.0000 C   0  0  0  0  0  0  0  0  0  0  0  0
    3.7500   -1.2990    0.0000 C   0  0  0  0  0  0  0  0  0  0  0  0
    2.2500    1.2990    0.0000 C   0  0  0  0  0  0  0  0  0  0  0  0
    2.2500   -1.2990    0.0000 C   0  0  0  0  0  0  0  0  0  0  0  0
    8.0490    3.5490    0.0000 C   0  0  0  0  0  0  0  0  0  0  0  0
    1.5000    0.0000    0.0000 C   0  0  0  0  0  0  0  0  0  0  0  0
   11.9460    1.2990    0.0000 C   0  0  0  0  0  0  0  0  0  0  0  0
   10.6470   -0.9510    0.0000 C   0  0  0  0  0  0  0  0  0  0  0  0
   13.2450    0.5490    0.0000 C   0  0  0  0  0  0  0  0  0  0  0  0
    6.7500    4.2990    0.0000 C   0  0  0  0  0  0  0  0  0  0  0  0
   14.5440    1.2990    0.0000 C   0  0  0  0  0  0  0  0  0  0  0  0
   15.8430    0.5490    0.0000 C   0  0  0  0  0  0  0  0  0  0  0  0
    5.4510    6.5490    0.0000 C   0  0  0  0  0  0  0  0  0  0  0  0
   18.2170    0.0440    0.0000 C   0  0  0  0  0  0  0  0  0  0  0  0
   17.4670   -1.2550    0.0000 C   0  0  0  0  0  0  0  0  0  0  0  0
   19.7170    0.0440    0.0000 C   0  0  0  0  0  0  0  0  0  0  0  0
   18.2170   -2.5540    0.0000 C   0  0  0  0  0  0  0  0  0  0  0  0
   20.4670   -1.2550    0.0000 C   0  0  0  0  0  0  0  0  0  0  0  0
   19.7170   -2.5540    0.0000 C   0  0  0  0  0  0  0  0  0  0  0  0
    5.4000   -1.0390    0.0000 H   0  0  0  0  0  0  0  0  0  0  0  0
    5.7920    3.7800    0.0000 H   0  0  0  0  0  0  0  0  0  0  0  0
    7.1280    3.0090    0.0000 H   0  0  0  0  0  0  0  0  0  0  0  0
    7.3500   -2.3380    0.0000 H   0  0  0  0  0  0  0  0  0  0  0  0
    8.8200   -0.3700    0.0000 H   0  0  0  0  0  0  0  0  0  0  0  0
    7.2780   -0.3700    0.0000 H   0  0  0  0  0  0  0  0  0  0  0  0
    3.3720    3.0090    0.0000 H   0  0  0  0  0  0  0  0  0  0  0  0
    4.7080    3.7800    0.0000 H   0  0  0  0  0  0  0  0  0  0  0  0
   10.1190    2.2180    0.0000 H   0  0  0  0  0  0  0  0  0  0  0  0
    8.5770    2.2180    0.0000 H   0  0  0  0  0  0  0  0  0  0  0  0
    4.9610   -1.9980    0.0000 H   0  0  0  0  0  0  0  0  0  0  0  0
    5.4000   -3.6370    0.0000 H   0  0  0  0  0  0  0  0  0  0  0  0
    7.0390   -3.1980    0.0000 H   0  0  0  0  0  0  0  0  0  0  0  0
    8.2500   -2.4990    0.0000 H   0  0  0  0  0  0  0  0  0  0  0  0
    8.8500   -1.2990    0.0000 H   0  0  0  0  0  0  0  0  0  0  0  0
    8.2500   -0.0990    0.0000 H   0  0  0  0  0  0  0  0  0  0  0  0
    4.3500   -2.3380    0.0000 H   0  0  0  0  0  0  0  0  0  0  0  0
    1.6500    2.3380    0.0000 H   0  0  0  0  0  0  0  0  0  0  0  0
    1.6500   -2.3380    0.0000 H   0  0  0  0  0  0  0  0  0  0  0  0
   12.7170    2.2180    0.0000 H   0  0  0  0  0  0  0  0  0  0  0  0
   11.1750    2.2180    0.0000 H   0  0  0  0  0  0  0  0  0  0  0  0
   10.0470   -0.9510    0.0000 H   0  0  0  0  0  0  0  0  0  0  0  0
   10.6470   -2.1510    0.0000 H   0  0  0  0  0  0  0  0  0  0  0  0
   11.8470   -0.9510    0.0000 H   0  0  0  0  0  0  0  0  0  0  0  0
   14.0170   -0.3700    0.0000 H   0  0  0  0  0  0  0  0  0  0  0  0
   12.4740   -0.3700    0.0000 H   0  0  0  0  0  0  0  0  0  0  0  0
    5.5680    4.5070    0.0000 H   0  0  0  0  0  0  0  0  0  0  0  0
    6.3400    3.1710    0.0000 H   0  0  0  0  0  0  0  0  0  0  0  0
   15.3160    2.2180    0.0000 H   0  0  0  0  0  0  0  0  0  0  0  0
   13.7730    2.2180    0.0000 H   0  0  0  0  0  0  0  0  0  0  0  0
   17.4630    2.3330    0.0000 H   0  0  0  0  0  0  0  0  0  0  0  0
    6.0510    7.5880    0.0000 H   0  0  0  0  0  0  0  0  0  0  0  0
    4.4120    7.1490    0.0000 H   0  0  0  0  0  0  0  0  0  0  0  0
    4.8510    5.5100    0.0000 H   0  0  0  0  0  0  0  0  0  0  0  0
   20.3170    1.0840    0.0000 H   0  0  0  0  0  0  0  0  0  0  0  0
   17.6170   -3.5930    0.0000 H   0  0  0  0  0  0  0  0  0  0  0  0
   21.6670   -1.2550    0.0000 H   0  0  0  0  0  0  0  0  0  0  0  0
   20.3170   -3.5930    0.0000 H   0  0  0  0  0  0  0  0  0  0  0  0
  1 23  1  0  0  0  0
  8  2  1  1  0  0  0
  2 22  1  0  0  0  0
  3 22  2  0  0  0  0
  4 27  1  0  0  0  0
  4 30  1  0  0  0  0
  5 16  1  6  0  0  0
  5 24  1  0  0  0  0
  5 25  1  0  0  0  0
  6 29  1  0  0  0  0
  6 31  1  0  0  0  0
  6 67  1  0  0  0  0
  7 29  2  0  0  0  0
  7 32  1  0  0  0  0
  8  9  1  0  0  0  0
  8 10  1  0  0  0  0
  8 12  1  6  0  0  0
  9 11  1  1  0  0  0
  9 13  1  0  0  0  0
  9 37  1  6  0  0  0
 10 14  1  0  0  0  0
 10 38  1  0  0  0  0
 10 39  1  0  0  0  0
 11 17  1  0  0  0  0
 11 18  1  0  0  0  0
 11 40  1  0  0  0  0
 12 16  1  0  0  0  0
 12 41  1  0  0  0  0
 12 42  1  0  0  0  0
 13 15  2  0  0  0  0
 13 19  1  0  0  0  0
 14 15  1  0  0  0  0
 14 43  1  0  0  0  0
 14 44  1  0  0  0  0
 15 20  1  0  0  0  0
 16 45  1  0  0  0  0
 16 46  1  0  0  0  0
 17 47  1  0  0  0  0
 17 48  1  0  0  0  0
 17 49  1  0  0  0  0
 18 50  1  0  0  0  0
 18 51  1  0  0  0  0
 18 52  1  0  0  0  0
 19 21  2  0  0  0  0
 19 53  1  0  0  0  0
 20 23  2  0  0  0  0
 20 54  1  0  0  0  0
 21 23  1  0  0  0  0
 21 55  1  0  0  0  0
 22 27  1  0  0  0  0
 24 26  1  0  0  0  0
 24 56  1  0  0  0  0
 24 57  1  0  0  0  0
 25 58  1  0  0  0  0
 25 59  1  0  0  0  0
 25 60  1  0  0  0  0
 26 28  1  0  0  0  0
 26 61  1  0  0  0  0
 26 62  1  0  0  0  0
 27 63  1  0  0  0  0
 27 64  1  0  0  0  0
 28 29  1  0  0  0  0
 28 65  1  0  0  0  0
 28 66  1  0  0  0  0
 30 68  1  0  0  0  0
 30 69  1  0  0  0  0
 30 70  1  0  0  0  0
 31 32  1  0  0  0  0
 31 33  2  0  0  0  0
 32 34  2  0  0  0  0
 33 35  1  0  0  0  0
 33 71  1  0  0  0  0
 34 36  1  0  0  0  0
 34 72  1  0  0  0  0
 35 36  2  0  0  0  0
 35 73  1  0  0  0  0
 36 74  1  0  0  0  0
M  END
$$$$
Metronidazole
  MOE2018           2D

 21 21  0  0  0  0  0  0  0  0999 V2000
    7.4600   -3.4030    0.0000 O   0  0  0  0  0  0  0  0  0  0  0  0
    0.2530   -2.8100    0.0000 O   0  5  0  0  0  0  0  0  0  0  0  0
    2.4790   -4.1500    0.0000 O   0  0  0  0  0  0  0  0  0  0  0  0
    4.0210   -1.4230    0.0000 N   0  0  0  0  0  0  0  0  0  0  0  0
    3.0740    0.8120    0.0000 N   0  0  0  0  0  0  0  0  0  0  0  0
    1.7530   -2.8380    0.0000 N   0  3  0  0  0  0  0  0  0  0  0  0
    5.0040   -2.5550    0.0000 C   0  0  0  0  0  0  0  0  0  0  0  0
    4.3590    0.0390    0.0000 C   0  0  0  0  0  0  0  0  0  0  0  0
    2.5260   -1.5520    0.0000 C   0  0  0  0  0  0  0  0  0  0  0  0
    6.4770   -2.2700    0.0000 C   0  0  0  0  0  0  0  0  0  0  0  0
    1.9410   -0.1710    0.0000 C   0  0  0  0  0  0  0  0  0  0  0  0
    5.7400    0.6240    0.0000 C   0  0  0  0  0  0  0  0  0  0  0  0
    5.4330   -3.6760    0.0000 H   0  0  0  0  0  0  0  0  0  0  0  0
    3.9750   -3.1730    0.0000 H   0  0  0  0  0  0  0  0  0  0  0  0
    7.5060   -1.6530    0.0000 H   0  0  0  0  0  0  0  0  0  0  0  0
    6.0470   -1.1490    0.0000 H   0  0  0  0  0  0  0  0  0  0  0  0
    0.7720    0.1000    0.0000 H   0  0  0  0  0  0  0  0  0  0  0  0
    6.2090   -0.4810    0.0000 H   0  0  0  0  0  0  0  0  0  0  0  0
    6.8450    1.0920    0.0000 H   0  0  0  0  0  0  0  0  0  0  0  0
    5.2720    1.7290    0.0000 H   0  0  0  0  0  0  0  0  0  0  0  0
    8.6380   -3.1750    0.0000 H   0  0  0  0  0  0  0  0  0  0  0  0
  1 10  1  0  0  0  0
  1 21  1  0  0  0  0
  2  6  1  0  0  0  0
  3  6  2  0  0  0  0
  4  7  1  0  0  0  0
  4  8  1  0  0  0  0
  4  9  1  0  0  0  0
  5  8  2  0  0  0  0
  5 11  1  0  0  0  0
  6  9  1  0  0  0  0
  7 10  1  0  0  0  0
  7 13  1  0  0  0  0
  7 14  1  0  0  0  0
  8 12  1  0  0  0  0
  9 11  2  0  0  0  0
 10 15  1  0  0  0  0
 10 16  1  0  0  0  0
 11 17  1  0  0  0  0
 12 18  1  0  0  0  0
 12 19  1  0  0  0  0
 12 20  1  0  0  0  0
M  CHG  1   2  -1
M  CHG  1   6   1
M  END
$$$$
Moxifloxacin
  MOE2018           2D

 53 57  0  0  1  0  0  0  0  0999 V2000
    4.0650   -2.3470    0.0000 F   0  0  0  0  0  0  0  0  0  0  0  0
    4.0650    2.8490    0.0000 O   0  0  0  0  0  0  0  0  0  0  0  0
   -1.1850   -1.0480    0.0000 O   0  0  0  0  0  0  0  0  0  0  0  0
   -3.4350    2.8490    0.0000 O   0  0  0  0  0  0  0  0  0  0  0  0
   -3.4350    0.2510    0.0000 O   0  0  0  0  0  0  0  0  0  0  0  0
    5.5650    0.2510    0.0000 N   0  0  0  0  0  0  0  0  0  0  0  0
    9.1720   -1.2490    0.0000 N   0  0  0  0  0  0  0  0  0  0  0  0
    1.0650    2.8490    0.0000 N   0  0  0  0  0  0  0  0  0  0  0  0
    7.8730    1.0010    0.0000 C   0  0  2  0  0  0  0  0  0  0  0  0
    7.8730   -0.4990    0.0000 C   0  0  1  0  0  0  0  0  0  0  0  0
    6.4470    1.4650    0.0000 C   0  0  0  0  0  0  0  0  0  0  0  0
    6.4470   -0.9620    0.0000 C   0  0  0  0  0  0  0  0  0  0  0  0
    9.1720    1.7510    0.0000 C   0  0  0  0  0  0  0  0  0  0  0  0
    1.8150    4.1480    0.0000 C   0  0  0  0  0  0  0  0  0  0  0  0
   10.4710    1.0010    0.0000 C   0  0  0  0  0  0  0  0  0  0  0  0
    1.8150    5.6480    0.0000 C   0  0  0  0  0  0  0  0  0  0  0  0
    3.1140    4.8980    0.0000 C   0  0  0  0  0  0  0  0  0  0  0  0
   10.4710   -0.4990    0.0000 C   0  0  0  0  0  0  0  0  0  0  0  0
    4.0650    0.2510    0.0000 C   0  0  0  0  0  0  0  0  0  0  0  0
    1.8150    1.5500    0.0000 C   0  0  0  0  0  0  0  0  0  0  0  0
    3.3150    1.5500    0.0000 C   0  0  0  0  0  0  0  0  0  0  0  0
    1.0650    0.2510    0.0000 C   0  0  0  0  0  0  0  0  0  0  0  0
    3.3150   -1.0480    0.0000 C   0  0  0  0  0  0  0  0  0  0  0  0
   -0.4350    2.8490    0.0000 C   0  0  0  0  0  0  0  0  0  0  0  0
    1.8150   -1.0480    0.0000 C   0  0  0  0  0  0  0  0  0  0  0  0
   -1.1850    1.5500    0.0000 C   0  0  0  0  0  0  0  0  0  0  0  0
   -0.4350    0.2510    0.0000 C   0  0  0  0  0  0  0  0  0  0  0  0
   -2.6850    1.5500    0.0000 C   0  0  0  0  0  0  0  0  0  0  0  0
    5.5650    2.8490    0.0000 C   0  0  0  0  0  0  0  0  0  0  0  0
    7.8730    2.2010    0.0000 H   0  0  0  0  0  0  0  0  0  0  0  0
    7.8730   -1.6990    0.0000 H   0  0  0  0  0  0  0  0  0  0  0  0
    5.9270    1.7650    0.0000 H   0  0  0  0  0  0  0  0  0  0  0  0
    6.6910    2.0130    0.0000 H   0  0  0  0  0  0  0  0  0  0  0  0
    5.4080   -1.5620    0.0000 H   0  0  0  0  0  0  0  0  0  0  0  0
    6.9350   -2.0590    0.0000 H   0  0  0  0  0  0  0  0  0  0  0  0
    9.9440    2.6700    0.0000 H   0  0  0  0  0  0  0  0  0  0  0  0
    8.4010    2.6700    0.0000 H   0  0  0  0  0  0  0  0  0  0  0  0
    0.7760    4.7480    0.0000 H   0  0  0  0  0  0  0  0  0  0  0  0
   11.6530    0.7930    0.0000 H   0  0  0  0  0  0  0  0  0  0  0  0
   10.8820    2.1290    0.0000 H   0  0  0  0  0  0  0  0  0  0  0  0
    9.1720   -2.4490    0.0000 H   0  0  0  0  0  0  0  0  0  0  0  0
    2.2260    6.7760    0.0000 H   0  0  0  0  0  0  0  0  0  0  0  0
    0.6330    5.8570    0.0000 H   0  0  0  0  0  0  0  0  0  0  0  0
    3.8860    3.9790    0.0000 H   0  0  0  0  0  0  0  0  0  0  0  0
    3.8860    5.8170    0.0000 H   0  0  0  0  0  0  0  0  0  0  0  0
   10.8820   -1.6270    0.0000 H   0  0  0  0  0  0  0  0  0  0  0  0
   11.6530   -0.2910    0.0000 H   0  0  0  0  0  0  0  0  0  0  0  0
   -1.0350    3.8880    0.0000 H   0  0  0  0  0  0  0  0  0  0  0  0
    1.2150   -2.0870    0.0000 H   0  0  0  0  0  0  0  0  0  0  0  0
    5.5650    2.2490    0.0000 H   0  0  0  0  0  0  0  0  0  0  0  0
    6.1650    2.8490    0.0000 H   0  0  0  0  0  0  0  0  0  0  0  0
    5.5650    4.0490    0.0000 H   0  0  0  0  0  0  0  0  0  0  0  0
   -4.6350    2.8490    0.0000 H   0  0  0  0  0  0  0  0  0  0  0  0
  1 23  1  0  0  0  0
  2 21  1  0  0  0  0
  2 29  1  0  0  0  0
  3 27  2  0  0  0  0
  4 28  1  0  0  0  0
  4 53  1  0  0  0  0
  5 28  2  0  0  0  0
  6 11  1  0  0  0  0
  6 12  1  0  0  0  0
  6 19  1  0  0  0  0
  7 10  1  0  0  0  0
  7 18  1  0  0  0  0
  7 41  1  0  0  0  0
  8 14  1  0  0  0  0
  8 20  1  0  0  0  0
  8 24  1  0  0  0  0
  9 10  1  0  0  0  0
  9 11  1  0  0  0  0
  9 13  1  0  0  0  0
  9 30  1  1  0  0  0
 10 12  1  0  0  0  0
 10 31  1  1  0  0  0
 11 32  1  0  0  0  0
 11 33  1  0  0  0  0
 12 34  1  0  0  0  0
 12 35  1  0  0  0  0
 13 15  1  0  0  0  0
 13 36  1  0  0  0  0
 13 37  1  0  0  0  0
 14 16  1  0  0  0  0
 14 17  1  0  0  0  0
 14 38  1  0  0  0  0
 15 18  1  0  0  0  0
 15 39  1  0  0  0  0
 15 40  1  0  0  0  0
 16 17  1  0  0  0  0
 16 42  1  0  0  0  0
 16 43  1  0  0  0  0
 17 44  1  0  0  0  0
 17 45  1  0  0  0  0
 18 46  1  0  0  0  0
 18 47  1  0  0  0  0
 19 21  1  0  0  0  0
 19 23  2  0  0  0  0
 20 21  2  0  0  0  0
 20 22  1  0  0  0  0
 22 25  2  0  0  0  0
 22 27  1  0  0  0  0
 23 25  1  0  0  0  0
 24 26  2  0  0  0  0
 24 48  1  0  0  0  0
 25 49  1  0  0  0  0
 26 27  1  0  0  0  0
 26 28  1  0  0  0  0
 29 50  1  0  0  0  0
 29 51  1  0  0  0  0
 29 52  1  0  0  0  0
M  END
$$$$
Paroxetine
  MOE2018           2D

 44 47  0  0  1  0  0  0  0  0999 V2000
    2.0410    8.2090    0.0000 F   0  0  0  0  0  0  0  0  0  0  0  0
    5.9380    1.4590    0.0000 O   0  0  0  0  0  0  0  0  0  0  0  0
   11.2620    1.7450    0.0000 O   0  0  0  0  0  0  0  0  0  0  0  0
   11.2620    4.1720    0.0000 O   0  0  0  0  0  0  0  0  0  0  0  0
    2.0410   -0.7910    0.0000 N   0  0  0  0  0  0  0  0  0  0  0  0
    2.0410    2.2090    0.0000 C   0  0  1  0  0  0  0  0  0  0  0  0
    3.3400    1.4590    0.0000 C   0  0  1  0  0  0  0  0  0  0  0  0
    0.7420    1.4590    0.0000 C   0  0  0  0  0  0  0  0  0  0  0  0
    3.3400   -0.0410    0.0000 C   0  0  0  0  0  0  0  0  0  0  0  0
    0.7420   -0.0410    0.0000 C   0  0  0  0  0  0  0  0  0  0  0  0
    4.6390    2.2090    0.0000 C   0  0  0  0  0  0  0  0  0  0  0  0
    2.0410    3.7090    0.0000 C   0  0  0  0  0  0  0  0  0  0  0  0
    0.7420    4.4590    0.0000 C   0  0  0  0  0  0  0  0  0  0  0  0
    3.3400    4.4590    0.0000 C   0  0  0  0  0  0  0  0  0  0  0  0
    0.7420    5.9590    0.0000 C   0  0  0  0  0  0  0  0  0  0  0  0
    3.3400    5.9590    0.0000 C   0  0  0  0  0  0  0  0  0  0  0  0
    7.2370    2.2090    0.0000 C   0  0  0  0  0  0  0  0  0  0  0  0
    2.0410    6.7090    0.0000 C   0  0  0  0  0  0  0  0  0  0  0  0
    8.5360    1.4590    0.0000 C   0  0  0  0  0  0  0  0  0  0  0  0
    7.2370    3.7090    0.0000 C   0  0  0  0  0  0  0  0  0  0  0  0
    9.8350    2.2090    0.0000 C   0  0  0  0  0  0  0  0  0  0  0  0
    9.8350    3.7090    0.0000 C   0  0  0  0  0  0  0  0  0  0  0  0
    8.5360    4.4590    0.0000 C   0  0  0  0  0  0  0  0  0  0  0  0
   12.1440    2.9590    0.0000 C   0  0  0  0  0  0  0  0  0  0  0  0
    1.0020    2.8090    0.0000 H   0  0  0  0  0  0  0  0  0  0  0  0
    4.3790    0.8590    0.0000 H   0  0  0  0  0  0  0  0  0  0  0  0
   -0.4400    1.2500    0.0000 H   0  0  0  0  0  0  0  0  0  0  0  0
    0.3320    2.5860    0.0000 H   0  0  0  0  0  0  0  0  0  0  0  0
    3.7510   -1.1690    0.0000 H   0  0  0  0  0  0  0  0  0  0  0  0
    4.5220    0.1670    0.0000 H   0  0  0  0  0  0  0  0  0  0  0  0
    0.3320   -1.1690    0.0000 H   0  0  0  0  0  0  0  0  0  0  0  0
   -0.4400    0.1670    0.0000 H   0  0  0  0  0  0  0  0  0  0  0  0
    5.4110    3.1280    0.0000 H   0  0  0  0  0  0  0  0  0  0  0  0
    3.8680    3.1280    0.0000 H   0  0  0  0  0  0  0  0  0  0  0  0
    2.0410   -1.9910    0.0000 H   0  0  0  0  0  0  0  0  0  0  0  0
   -0.2970    3.8590    0.0000 H   0  0  0  0  0  0  0  0  0  0  0  0
    4.3790    3.8590    0.0000 H   0  0  0  0  0  0  0  0  0  0  0  0
   -0.2970    6.5590    0.0000 H   0  0  0  0  0  0  0  0  0  0  0  0
    4.3790    6.5590    0.0000 H   0  0  0  0  0  0  0  0  0  0  0  0
    8.5360    0.2590    0.0000 H   0  0  0  0  0  0  0  0  0  0  0  0
    6.1980    4.3090    0.0000 H   0  0  0  0  0  0  0  0  0  0  0  0
    8.5360    5.6590    0.0000 H   0  0  0  0  0  0  0  0  0  0  0  0
   13.0350    2.1560    0.0000 H   0  0  0  0  0  0  0  0  0  0  0  0
   13.0350    3.7620    0.0000 H   0  0  0  0  0  0  0  0  0  0  0  0
  1 18  1  0  0  0  0
  2 11  1  0  0  0  0
  2 17  1  0  0  0  0
  3 21  1  0  0  0  0
  3 24  1  0  0  0  0
  4 22  1  0  0  0  0
  4 24  1  0  0  0  0
  5  9  1  0  0  0  0
  5 10  1  0  0  0  0
  5 35  1  0  0  0  0
  6  7  1  0  0  0  0
  6  8  1  0  0  0  0
  6 12  1  1  0  0  0
  6 25  1  6  0  0  0
  7  9  1  0  0  0  0
  7 11  1  6  0  0  0
  7 26  1  1  0  0  0
  8 10  1  0  0  0  0
  8 27  1  0  0  0  0
  8 28  1  0  0  0  0
  9 29  1  0  0  0  0
  9 30  1  0  0  0  0
 10 31  1  0  0  0  0
 10 32  1  0  0  0  0
 11 33  1  0  0  0  0
 11 34  1  0  0  0  0
 12 13  1  0  0  0  0
 12 14  2  0  0  0  0
 13 15  2  0  0  0  0
 13 36  1  0  0  0  0
 14 16  1  0  0  0  0
 14 37  1  0  0  0  0
 15 18  1  0  0  0  0
 15 38  1  0  0  0  0
 16 18  2  0  0  0  0
 16 39  1  0  0  0  0
 17 19  1  0  0  0  0
 17 20  2  0  0  0  0
 19 21  2  0  0  0  0
 19 40  1  0  0  0  0
 20 23  1  0  0  0  0
 20 41  1  0  0  0  0
 21 22  1  0  0  0  0
 22 23  2  0  0  0  0
 23 42  1  0  0  0  0
 24 43  1  0  0  0  0
 24 44  1  0  0  0  0
M  END
$$$$
Nifedipine
  MOE2018           2D

 43 44  0  0  0  0  0  0  0  0999 V2000
    0.1000   -0.4240    0.0000 O   0  0  0  0  0  0  0  0  0  0  0  0
    7.8680   -0.4340    0.0000 O   0  0  0  0  0  0  0  0  0  0  0  0
    1.5310    1.7450    0.0000 O   0  0  0  0  0  0  0  0  0  0  0  0
    6.3190    1.6520    0.0000 O   0  0  0  0  0  0  0  0  0  0  0  0
    5.6330    5.0760    0.0000 O   0  5  0  0  0  0  0  0  0  0  0  0
    6.7960    2.7530    0.0000 O   0  0  0  0  0  0  0  0  0  0  0  0
    3.8570   -2.9010    0.0000 N   0  0  0  0  0  0  0  0  0  0  0  0
    5.5440    3.5790    0.0000 N   0  3  0  0  0  0  0  0  0  0  0  0
    4.0350    0.0930    0.0000 C   0  0  0  0  0  0  0  0  0  0  0  0
    2.6940   -0.5780    0.0000 C   0  0  0  0  0  0  0  0  0  0  0  0
    5.2870   -0.7330    0.0000 C   0  0  0  0  0  0  0  0  0  0  0  0
    3.6070    1.5310    0.0000 C   0  0  0  0  0  0  0  0  0  0  0  0
    2.6040   -2.0750    0.0000 C   0  0  0  0  0  0  0  0  0  0  0  0
    5.1980   -2.2300    0.0000 C   0  0  0  0  0  0  0  0  0  0  0  0
    4.2020    2.9070    0.0000 C   0  0  0  0  0  0  0  0  0  0  0  0
    2.1170    1.3590    0.0000 C   0  0  0  0  0  0  0  0  0  0  0  0
    1.4410    0.2480    0.0000 C   0  0  0  0  0  0  0  0  0  0  0  0
    6.4910    0.1620    0.0000 C   0  0  0  0  0  0  0  0  0  0  0  0
    1.2630   -2.7470    0.0000 C   0  0  0  0  0  0  0  0  0  0  0  0
    6.4500   -3.0560    0.0000 C   0  0  0  0  0  0  0  0  0  0  0  0
    3.3080    4.1120    0.0000 C   0  0  0  0  0  0  0  0  0  0  0  0
    1.2220    2.5630    0.0000 C   0  0  0  0  0  0  0  0  0  0  0  0
    1.8180    3.9400    0.0000 C   0  0  0  0  0  0  0  0  0  0  0  0
   -1.1520    0.4020    0.0000 C   0  0  0  0  0  0  0  0  0  0  0  0
    9.0720    0.4600    0.0000 C   0  0  0  0  0  0  0  0  0  0  0  0
    4.8830    0.9420    0.0000 H   0  0  0  0  0  0  0  0  0  0  0  0
    3.7850   -4.0990    0.0000 H   0  0  0  0  0  0  0  0  0  0  0  0
    1.8780    0.8080    0.0000 H   0  0  0  0  0  0  0  0  0  0  0  0
    0.7260   -1.6740    0.0000 H   0  0  0  0  0  0  0  0  0  0  0  0
    0.1900   -3.2840    0.0000 H   0  0  0  0  0  0  0  0  0  0  0  0
    1.8000   -3.8200    0.0000 H   0  0  0  0  0  0  0  0  0  0  0  0
    5.7890   -4.0570    0.0000 H   0  0  0  0  0  0  0  0  0  0  0  0
    7.4520   -3.7160    0.0000 H   0  0  0  0  0  0  0  0  0  0  0  0
    7.1110   -2.0540    0.0000 H   0  0  0  0  0  0  0  0  0  0  0  0
    3.7850    5.2130    0.0000 H   0  0  0  0  0  0  0  0  0  0  0  0
    0.0300    2.4250    0.0000 H   0  0  0  0  0  0  0  0  0  0  0  0
    1.1030    4.9030    0.0000 H   0  0  0  0  0  0  0  0  0  0  0  0
   -0.4910    1.4040    0.0000 H   0  0  0  0  0  0  0  0  0  0  0  0
   -2.1540    1.0630    0.0000 H   0  0  0  0  0  0  0  0  0  0  0  0
   -1.8130   -0.5990    0.0000 H   0  0  0  0  0  0  0  0  0  0  0  0
    9.7880   -0.5040    0.0000 H   0  0  0  0  0  0  0  0  0  0  0  0
   10.0360    1.1750    0.0000 H   0  0  0  0  0  0  0  0  0  0  0  0
    8.3570    1.4230    0.0000 H   0  0  0  0  0  0  0  0  0  0  0  0
  1 17  1  0  0  0  0
  1 24  1  0  0  0  0
  2 18  1  0  0  0  0
  2 25  1  0  0  0  0
  3 17  2  0  0  0  0
  4 18  2  0  0  0  0
  5  8  1  0  0  0  0
  6  8  2  0  0  0  0
  7 13  1  0  0  0  0
  7 14  1  0  0  0  0
  7 27  1  0  0  0  0
  8 15  1  0  0  0  0
  9 10  1  0  0  0  0
  9 11  1  0  0  0  0
  9 12  1  0  0  0  0
  9 26  1  0  0  0  0
 10 13  2  0  0  0  0
 10 17  1  0  0  0  0
 11 14  2  0  0  0  0
 11 18  1  0  0  0  0
 12 15  2  0  0  0  0
 12 16  1  0  0  0  0
 13 19  1  0  0  0  0
 14 20  1  0  0  0  0
 15 21  1  0  0  0  0
 16 22  2  0  0  0  0
 16 28  1  0  0  0  0
 19 29  1  0  0  0  0
 19 30  1  0  0  0  0
 19 31  1  0  0  0  0
 20 32  1  0  0  0  0
 20 33  1  0  0  0  0
 20 34  1  0  0  0  0
 21 23  2  0  0  0  0
 21 35  1  0  0  0  0
 22 23  1  0  0  0  0
 22 36  1  0  0  0  0
 23 37  1  0  0  0  0
 24 38  1  0  0  0  0
 24 39  1  0  0  0  0
 24 40  1  0  0  0  0
 25 41  1  0  0  0  0
 25 42  1  0  0  0  0
 25 43  1  0  0  0  0
M  CHG  1   5  -1
M  CHG  1   8   1
M  END
$$$$
Nilotinib
  MOE2018           2D

 61 65  0  0  0  0  0  0  0  0999 V2000
   -0.0050    0.0120    0.0000 F   0  0  0  0  0  0  0  0  0  0  0  0
    1.4920   -1.4910    0.0000 F   0  0  0  0  0  0  0  0  0  0  0  0
    2.9950    0.0060    0.0000 F   0  0  0  0  0  0  0  0  0  0  0  0
    5.3970    2.2510    0.0000 O   0  0  0  0  0  0  0  0  0  0  0  0
   -1.0940    4.5140    0.0000 N   0  0  0  0  0  0  0  0  0  0  0  0
    4.1020    4.5040    0.0000 N   0  0  0  0  0  0  0  0  0  0  0  0
   10.5960    3.7410    0.0000 N   0  0  0  0  0  0  0  0  0  0  0  0
   -2.7140    6.3210    0.0000 N   0  0  0  0  0  0  0  0  0  0  0  0
   11.8900    1.4880    0.0000 N   0  0  0  0  0  0  0  0  0  0  0  0
    9.2920    1.4930    0.0000 N   0  0  0  0  0  0  0  0  0  0  0  0
   14.4790   -3.0170    0.0000 N   0  0  0  0  0  0  0  0  0  0  0  0
    0.2040    3.7620    0.0000 C   0  0  0  0  0  0  0  0  0  0  0  0
    2.8020    3.7560    0.0000 C   0  0  0  0  0  0  0  0  0  0  0  0
    1.4980    1.5090    0.0000 C   0  0  0  0  0  0  0  0  0  0  0  0
    1.5040    4.5090    0.0000 C   0  0  0  0  0  0  0  0  0  0  0  0
    0.2010    2.2620    0.0000 C   0  0  0  0  0  0  0  0  0  0  0  0
    2.7990    2.2560    0.0000 C   0  0  0  0  0  0  0  0  0  0  0  0
    6.7000    4.4990    0.0000 C   0  0  0  0  0  0  0  0  0  0  0  0
    9.2980    4.4930    0.0000 C   0  0  0  0  0  0  0  0  0  0  0  0
    9.3010    5.9930    0.0000 C   0  0  0  0  0  0  0  0  0  0  0  0
    7.9980    3.7460    0.0000 C   0  0  0  0  0  0  0  0  0  0  0  0
    5.4000    3.7510    0.0000 C   0  0  0  0  0  0  0  0  0  0  0  0
   -2.4650    3.9070    0.0000 C   0  0  0  0  0  0  0  0  0  0  0  0
    6.7030    5.9990    0.0000 C   0  0  0  0  0  0  0  0  0  0  0  0
    8.0040    6.7460    0.0000 C   0  0  0  0  0  0  0  0  0  0  0  0
    1.4950    0.0090    0.0000 C   0  0  0  0  0  0  0  0  0  0  0  0
   -1.2480    6.0070    0.0000 C   0  0  0  0  0  0  0  0  0  0  0  0
   -3.4670    5.0240    0.0000 C   0  0  0  0  0  0  0  0  0  0  0  0
   10.6020    6.7410    0.0000 C   0  0  0  0  0  0  0  0  0  0  0  0
   10.5930    2.2410    0.0000 C   0  0  0  0  0  0  0  0  0  0  0  0
   -4.9590    4.8700    0.0000 C   0  0  0  0  0  0  0  0  0  0  0  0
   11.8870   -0.0120    0.0000 C   0  0  0  0  0  0  0  0  0  0  0  0
   13.1850   -0.7650    0.0000 C   0  0  0  0  0  0  0  0  0  0  0  0
   10.5870   -0.7590    0.0000 C   0  0  0  0  0  0  0  0  0  0  0  0
    9.2890   -0.0070    0.0000 C   0  0  0  0  0  0  0  0  0  0  0  0
   14.4850   -0.0170    0.0000 C   0  0  0  0  0  0  0  0  0  0  0  0
   13.1820   -2.2650    0.0000 C   0  0  0  0  0  0  0  0  0  0  0  0
   15.7830   -0.7700    0.0000 C   0  0  0  0  0  0  0  0  0  0  0  0
   15.7800   -2.2700    0.0000 C   0  0  0  0  0  0  0  0  0  0  0  0
    1.5070    5.7090    0.0000 H   0  0  0  0  0  0  0  0  0  0  0  0
   -0.8400    1.6640    0.0000 H   0  0  0  0  0  0  0  0  0  0  0  0
    3.8370    1.6540    0.0000 H   0  0  0  0  0  0  0  0  0  0  0  0
    4.1050    5.7040    0.0000 H   0  0  0  0  0  0  0  0  0  0  0  0
    7.9950    2.5460    0.0000 H   0  0  0  0  0  0  0  0  0  0  0  0
   -2.7170    2.7340    0.0000 H   0  0  0  0  0  0  0  0  0  0  0  0
    5.6650    6.6010    0.0000 H   0  0  0  0  0  0  0  0  0  0  0  0
    8.0060    7.9460    0.0000 H   0  0  0  0  0  0  0  0  0  0  0  0
   -0.3540    6.8080    0.0000 H   0  0  0  0  0  0  0  0  0  0  0  0
   11.6360    4.3390    0.0000 H   0  0  0  0  0  0  0  0  0  0  0  0
   11.2000    5.7000    0.0000 H   0  0  0  0  0  0  0  0  0  0  0  0
   11.6420    7.3390    0.0000 H   0  0  0  0  0  0  0  0  0  0  0  0
   10.0040    7.7810    0.0000 H   0  0  0  0  0  0  0  0  0  0  0  0
   -5.0820    6.0640    0.0000 H   0  0  0  0  0  0  0  0  0  0  0  0
   -6.1530    4.7470    0.0000 H   0  0  0  0  0  0  0  0  0  0  0  0
   -4.8360    3.6760    0.0000 H   0  0  0  0  0  0  0  0  0  0  0  0
   10.5840   -1.9590    0.0000 H   0  0  0  0  0  0  0  0  0  0  0  0
    8.2490   -0.6050    0.0000 H   0  0  0  0  0  0  0  0  0  0  0  0
   14.4880    1.1830    0.0000 H   0  0  0  0  0  0  0  0  0  0  0  0
   12.1410   -2.8630    0.0000 H   0  0  0  0  0  0  0  0  0  0  0  0
   16.8230   -0.1720    0.0000 H   0  0  0  0  0  0  0  0  0  0  0  0
   16.8180   -2.8720    0.0000 H   0  0  0  0  0  0  0  0  0  0  0  0
  1 26  1  0  0  0  0
  2 26  1  0  0  0  0
  3 26  1  0  0  0  0
  4 22  2  0  0  0  0
  5 12  1  0  0  0  0
  5 23  1  0  0  0  0
  5 27  1  0  0  0  0
  6 13  1  0  0  0  0
  6 22  1  0  0  0  0
  6 43  1  0  0  0  0
  7 19  1  0  0  0  0
  7 30  1  0  0  0  0
  7 49  1  0  0  0  0
  8 27  2  0  0  0  0
  8 28  1  0  0  0  0
  9 30  2  0  0  0  0
  9 32  1  0  0  0  0
 10 30  1  0  0  0  0
 10 35  2  0  0  0  0
 11 37  2  0  0  0  0
 11 39  1  0  0  0  0
 12 15  2  0  0  0  0
 12 16  1  0  0  0  0
 13 15  1  0  0  0  0
 13 17  2  0  0  0  0
 14 16  2  0  0  0  0
 14 17  1  0  0  0  0
 14 26  1  0  0  0  0
 15 40  1  0  0  0  0
 16 41  1  0  0  0  0
 17 42  1  0  0  0  0
 18 21  2  0  0  0  0
 18 22  1  0  0  0  0
 18 24  1  0  0  0  0
 19 20  2  0  0  0  0
 19 21  1  0  0  0  0
 20 25  1  0  0  0  0
 20 29  1  0  0  0  0
 21 44  1  0  0  0  0
 23 28  2  0  0  0  0
 23 45  1  0  0  0  0
 24 25  2  0  0  0  0
 24 46  1  0  0  0  0
 25 47  1  0  0  0  0
 27 48  1  0  0  0  0
 28 31  1  0  0  0  0
 29 50  1  0  0  0  0
 29 51  1  0  0  0  0
 29 52  1  0  0  0  0
 31 53  1  0  0  0  0
 31 54  1  0  0  0  0
 31 55  1  0  0  0  0
 32 33  1  0  0  0  0
 32 34  2  0  0  0  0
 33 36  2  0  0  0  0
 33 37  1  0  0  0  0
 34 35  1  0  0  0  0
 34 56  1  0  0  0  0
 35 57  1  0  0  0  0
 36 38  1  0  0  0  0
 36 58  1  0  0  0  0
 37 59  1  0  0  0  0
 38 39  2  0  0  0  0
 38 60  1  0  0  0  0
 39 61  1  0  0  0  0
M  END
$$$$
Nitrendipine
  MOE2018           2D

 46 47  0  0  1  0  0  0  0  0999 V2000
    8.3650    0.0000    0.0000 O   0  0  0  0  0  0  0  0  0  0  0  0
    1.6150    3.8970    0.0000 O   0  0  0  0  0  0  0  0  0  0  0  0
    6.1150   -1.2990    0.0000 O   0  0  0  0  0  0  0  0  0  0  0  0
    1.6150    1.2990    0.0000 O   0  0  0  0  0  0  0  0  0  0  0  0
   -0.6350    0.0000    0.0000 O   0  5  0  0  0  0  0  0  0  0  0  0
   -0.6350   -2.5980    0.0000 O   0  0  0  0  0  0  0  0  0  0  0  0
    6.1150    3.8970    0.0000 N   0  0  0  0  0  0  0  0  0  0  0  0
    0.1150   -1.2990    0.0000 N   0  3  0  0  0  0  0  0  0  0  0  0
    4.6150    1.2990    0.0000 C   0  0  1  0  0  0  0  0  0  0  0  0
    6.1150    1.2990    0.0000 C   0  0  0  0  0  0  0  0  0  0  0  0
    3.8650    2.5980    0.0000 C   0  0  0  0  0  0  0  0  0  0  0  0
    3.8650    0.0000    0.0000 C   0  0  0  0  0  0  0  0  0  0  0  0
    6.8650    2.5980    0.0000 C   0  0  0  0  0  0  0  0  0  0  0  0
    4.6150    3.8970    0.0000 C   0  0  0  0  0  0  0  0  0  0  0  0
    2.3650    0.0000    0.0000 C   0  0  0  0  0  0  0  0  0  0  0  0
    6.8650    0.0000    0.0000 C   0  0  0  0  0  0  0  0  0  0  0  0
    4.6150   -1.2990    0.0000 C   0  0  0  0  0  0  0  0  0  0  0  0
    8.3650    2.5980    0.0000 C   0  0  0  0  0  0  0  0  0  0  0  0
    3.8650    5.1960    0.0000 C   0  0  0  0  0  0  0  0  0  0  0  0
    2.3650    2.5980    0.0000 C   0  0  0  0  0  0  0  0  0  0  0  0
    1.6150   -1.2990    0.0000 C   0  0  0  0  0  0  0  0  0  0  0  0
    3.8650   -2.5980    0.0000 C   0  0  0  0  0  0  0  0  0  0  0  0
    2.3650   -2.5980    0.0000 C   0  0  0  0  0  0  0  0  0  0  0  0
    9.1150   -1.2990    0.0000 C   0  0  0  0  0  0  0  0  0  0  0  0
    0.1150    3.8970    0.0000 C   0  0  0  0  0  0  0  0  0  0  0  0
   10.6150   -1.2990    0.0000 C   0  0  0  0  0  0  0  0  0  0  0  0
    5.2150    2.3380    0.0000 H   0  0  0  0  0  0  0  0  0  0  0  0
    6.7150    4.9360    0.0000 H   0  0  0  0  0  0  0  0  0  0  0  0
    2.0650    0.5200    0.0000 H   0  0  0  0  0  0  0  0  0  0  0  0
    5.2150   -1.2990    0.0000 H   0  0  0  0  0  0  0  0  0  0  0  0
    8.3650    1.3980    0.0000 H   0  0  0  0  0  0  0  0  0  0  0  0
    9.5650    2.5980    0.0000 H   0  0  0  0  0  0  0  0  0  0  0  0
    8.3650    3.7980    0.0000 H   0  0  0  0  0  0  0  0  0  0  0  0
    4.9050    5.7960    0.0000 H   0  0  0  0  0  0  0  0  0  0  0  0
    3.2650    6.2350    0.0000 H   0  0  0  0  0  0  0  0  0  0  0  0
    2.8260    4.5960    0.0000 H   0  0  0  0  0  0  0  0  0  0  0  0
    4.4650   -3.6370    0.0000 H   0  0  0  0  0  0  0  0  0  0  0  0
    1.7650   -3.6370    0.0000 H   0  0  0  0  0  0  0  0  0  0  0  0
    9.3240   -2.4810    0.0000 H   0  0  0  0  0  0  0  0  0  0  0  0
    7.9880   -1.7090    0.0000 H   0  0  0  0  0  0  0  0  0  0  0  0
    0.1150    5.0970    0.0000 H   0  0  0  0  0  0  0  0  0  0  0  0
   -1.0850    3.8970    0.0000 H   0  0  0  0  0  0  0  0  0  0  0  0
    0.1150    2.6970    0.0000 H   0  0  0  0  0  0  0  0  0  0  0  0
   10.6150   -2.4990    0.0000 H   0  0  0  0  0  0  0  0  0  0  0  0
   11.8150   -1.2990    0.0000 H   0  0  0  0  0  0  0  0  0  0  0  0
   10.6150   -0.0990    0.0000 H   0  0  0  0  0  0  0  0  0  0  0  0
  1 16  1  0  0  0  0
  1 24  1  0  0  0  0
  2 20  1  0  0  0  0
  2 25  1  0  0  0  0
  3 16  2  0  0  0  0
  4 20  2  0  0  0  0
  5  8  1  0  0  0  0
  6  8  2  0  0  0  0
  7 13  1  0  0  0  0
  7 14  1  0  0  0  0
  7 28  1  0  0  0  0
  8 21  1  0  0  0  0
  9 10  1  0  0  0  0
  9 11  1  0  0  0  0
  9 12  1  0  0  0  0
  9 27  1  1  0  0  0
 10 13  2  0  0  0  0
 10 16  1  0  0  0  0
 11 14  2  0  0  0  0
 11 20  1  0  0  0  0
 12 15  2  0  0  0  0
 12 17  1  0  0  0  0
 13 18  1  0  0  0  0
 14 19  1  0  0  0  0
 15 21  1  0  0  0  0
 15 29  1  0  0  0  0
 17 22  2  0  0  0  0
 17 30  1  0  0  0  0
 18 31  1  0  0  0  0
 18 32  1  0  0  0  0
 18 33  1  0  0  0  0
 19 34  1  0  0  0  0
 19 35  1  0  0  0  0
 19 36  1  0  0  0  0
 21 23  2  0  0  0  0
 22 23  1  0  0  0  0
 22 37  1  0  0  0  0
 23 38  1  0  0  0  0
 24 26  1  0  0  0  0
 24 39  1  0  0  0  0
 24 40  1  0  0  0  0
 25 41  1  0  0  0  0
 25 42  1  0  0  0  0
 25 43  1  0  0  0  0
 26 44  1  0  0  0  0
 26 45  1  0  0  0  0
 26 46  1  0  0  0  0
M  CHG  1   5  -1
M  CHG  1   8   1
M  END
$$$$
Pimozide
  MOE2018           2D

 63 67  0  0  0  0  0  0  0  0999 V2000
    0.9260    8.8530    0.0000 F   0  0  0  0  0  0  0  0  0  0  0  0
   -4.2700   -0.1470    0.0000 F   0  0  0  0  0  0  0  0  0  0  0  0
    9.0610    7.5980    0.0000 O   0  0  0  0  0  0  0  0  0  0  0  0
    6.1220    2.8530    0.0000 N   0  0  0  0  0  0  0  0  0  0  0  0
   10.0190    5.1030    0.0000 N   0  0  0  0  0  0  0  0  0  0  0  0
   11.6430    6.9070    0.0000 N   0  0  0  0  0  0  0  0  0  0  0  0
    8.7200    4.3530    0.0000 C   0  0  0  0  0  0  0  0  0  0  0  0
    7.4210    5.1030    0.0000 C   0  0  0  0  0  0  0  0  0  0  0  0
    8.7200    2.8530    0.0000 C   0  0  0  0  0  0  0  0  0  0  0  0
    6.1220    4.3530    0.0000 C   0  0  0  0  0  0  0  0  0  0  0  0
    7.4210    2.1030    0.0000 C   0  0  0  0  0  0  0  0  0  0  0  0
    4.8230    2.1030    0.0000 C   0  0  0  0  0  0  0  0  0  0  0  0
    3.5240    2.8530    0.0000 C   0  0  0  0  0  0  0  0  0  0  0  0
   11.3890    4.4930    0.0000 C   0  0  0  0  0  0  0  0  0  0  0  0
    2.2250    2.1030    0.0000 C   0  0  0  0  0  0  0  0  0  0  0  0
   10.1760    6.5950    0.0000 C   0  0  0  0  0  0  0  0  0  0  0  0
    0.9260    2.8530    0.0000 C   0  0  0  0  0  0  0  0  0  0  0  0
   12.3930    5.6080    0.0000 C   0  0  0  0  0  0  0  0  0  0  0  0
   11.8530    3.0660    0.0000 C   0  0  0  0  0  0  0  0  0  0  0  0
    0.9260    4.3530    0.0000 C   0  0  0  0  0  0  0  0  0  0  0  0
   -0.3730    2.1030    0.0000 C   0  0  0  0  0  0  0  0  0  0  0  0
   13.8600    5.2960    0.0000 C   0  0  0  0  0  0  0  0  0  0  0  0
   13.3200    2.7540    0.0000 C   0  0  0  0  0  0  0  0  0  0  0  0
   14.3240    3.8690    0.0000 C   0  0  0  0  0  0  0  0  0  0  0  0
   -0.3730    5.1030    0.0000 C   0  0  0  0  0  0  0  0  0  0  0  0
   -0.3730    0.6030    0.0000 C   0  0  0  0  0  0  0  0  0  0  0  0
    2.2250    5.1030    0.0000 C   0  0  0  0  0  0  0  0  0  0  0  0
   -1.6720    2.8530    0.0000 C   0  0  0  0  0  0  0  0  0  0  0  0
   -0.3730    6.6030    0.0000 C   0  0  0  0  0  0  0  0  0  0  0  0
   -1.6720   -0.1470    0.0000 C   0  0  0  0  0  0  0  0  0  0  0  0
    2.2250    6.6030    0.0000 C   0  0  0  0  0  0  0  0  0  0  0  0
   -2.9710    2.1030    0.0000 C   0  0  0  0  0  0  0  0  0  0  0  0
    0.9260    7.3530    0.0000 C   0  0  0  0  0  0  0  0  0  0  0  0
   -2.9710    0.6030    0.0000 C   0  0  0  0  0  0  0  0  0  0  0  0
    8.7200    5.5530    0.0000 H   0  0  0  0  0  0  0  0  0  0  0  0
    6.6500    6.0220    0.0000 H   0  0  0  0  0  0  0  0  0  0  0  0
    8.1920    6.0220    0.0000 H   0  0  0  0  0  0  0  0  0  0  0  0
    9.1310    1.7250    0.0000 H   0  0  0  0  0  0  0  0  0  0  0  0
    9.9020    3.0610    0.0000 H   0  0  0  0  0  0  0  0  0  0  0  0
    4.9400    4.1450    0.0000 H   0  0  0  0  0  0  0  0  0  0  0  0
    5.7120    5.4810    0.0000 H   0  0  0  0  0  0  0  0  0  0  0  0
    6.6500    1.1840    0.0000 H   0  0  0  0  0  0  0  0  0  0  0  0
    8.1920    1.1840    0.0000 H   0  0  0  0  0  0  0  0  0  0  0  0
    4.0520    1.1840    0.0000 H   0  0  0  0  0  0  0  0  0  0  0  0
    5.5940    1.1840    0.0000 H   0  0  0  0  0  0  0  0  0  0  0  0
    2.7530    3.7720    0.0000 H   0  0  0  0  0  0  0  0  0  0  0  0
    4.2950    3.7720    0.0000 H   0  0  0  0  0  0  0  0  0  0  0  0
    1.4540    1.1840    0.0000 H   0  0  0  0  0  0  0  0  0  0  0  0
    2.9960    1.1840    0.0000 H   0  0  0  0  0  0  0  0  0  0  0  0
    0.9260    1.6530    0.0000 H   0  0  0  0  0  0  0  0  0  0  0  0
   12.1310    8.0030    0.0000 H   0  0  0  0  0  0  0  0  0  0  0  0
   11.0500    2.1750    0.0000 H   0  0  0  0  0  0  0  0  0  0  0  0
   14.6630    6.1880    0.0000 H   0  0  0  0  0  0  0  0  0  0  0  0
   13.6910    1.6130    0.0000 H   0  0  0  0  0  0  0  0  0  0  0  0
   15.4980    3.6200    0.0000 H   0  0  0  0  0  0  0  0  0  0  0  0
   -1.4120    4.5030    0.0000 H   0  0  0  0  0  0  0  0  0  0  0  0
    0.6660    0.0030    0.0000 H   0  0  0  0  0  0  0  0  0  0  0  0
    3.2640    4.5030    0.0000 H   0  0  0  0  0  0  0  0  0  0  0  0
   -1.6720    4.0530    0.0000 H   0  0  0  0  0  0  0  0  0  0  0  0
   -1.4120    7.2030    0.0000 H   0  0  0  0  0  0  0  0  0  0  0  0
   -1.6720   -1.3470    0.0000 H   0  0  0  0  0  0  0  0  0  0  0  0
    3.2640    7.2030    0.0000 H   0  0  0  0  0  0  0  0  0  0  0  0
   -4.0100    2.7030    0.0000 H   0  0  0  0  0  0  0  0  0  0  0  0
  1 33  1  0  0  0  0
  2 34  1  0  0  0  0
  3 16  2  0  0  0  0
  4 10  1  0  0  0  0
  4 11  1  0  0  0  0
  4 12  1  0  0  0  0
  5  7  1  0  0  0  0
  5 14  1  0  0  0  0
  5 16  1  0  0  0  0
  6 16  1  0  0  0  0
  6 18  1  0  0  0  0
  6 51  1  0  0  0  0
  7  8  1  0  0  0  0
  7  9  1  0  0  0  0
  7 35  1  0  0  0  0
  8 10  1  0  0  0  0
  8 36  1  0  0  0  0
  8 37  1  0  0  0  0
  9 11  1  0  0  0  0
  9 38  1  0  0  0  0
  9 39  1  0  0  0  0
 10 40  1  0  0  0  0
 10 41  1  0  0  0  0
 11 42  1  0  0  0  0
 11 43  1  0  0  0  0
 12 13  1  0  0  0  0
 12 44  1  0  0  0  0
 12 45  1  0  0  0  0
 13 15  1  0  0  0  0
 13 46  1  0  0  0  0
 13 47  1  0  0  0  0
 14 18  2  0  0  0  0
 14 19  1  0  0  0  0
 15 17  1  0  0  0  0
 15 48  1  0  0  0  0
 15 49  1  0  0  0  0
 17 20  1  0  0  0  0
 17 21  1  0  0  0  0
 17 50  1  0  0  0  0
 18 22  1  0  0  0  0
 19 23  2  0  0  0  0
 19 52  1  0  0  0  0
 20 25  2  0  0  0  0
 20 27  1  0  0  0  0
 21 26  2  0  0  0  0
 21 28  1  0  0  0  0
 22 24  2  0  0  0  0
 22 53  1  0  0  0  0
 23 24  1  0  0  0  0
 23 54  1  0  0  0  0
 24 55  1  0  0  0  0
 25 29  1  0  0  0  0
 25 56  1  0  0  0  0
 26 30  1  0  0  0  0
 26 57  1  0  0  0  0
 27 31  2  0  0  0  0
 27 58  1  0  0  0  0
 28 32  2  0  0  0  0
 28 59  1  0  0  0  0
 29 33  2  0  0  0  0
 29 60  1  0  0  0  0
 30 34  2  0  0  0  0
 30 61  1  0  0  0  0
 31 33  1  0  0  0  0
 31 62  1  0  0  0  0
 32 34  1  0  0  0  0
 32 63  1  0  0  0  0
M  END
$$$$
Procainamide
  MOE2018           2D

 38 38  0  0  0  0  0  0  0  0999 V2000
    1.1680   -1.1680    0.0000 O   0  0  0  0  0  0  0  0  0  0  0  0
    6.3650    0.3320    0.0000 N   0  0  0  0  0  0  0  0  0  0  0  0
    2.4670    1.0820    0.0000 N   0  0  0  0  0  0  0  0  0  0  0  0
   -4.0280    3.3320    0.0000 N   0  0  0  0  0  0  0  0  0  0  0  0
    5.0650    1.0820    0.0000 C   0  0  0  0  0  0  0  0  0  0  0  0
    7.6640    1.0820    0.0000 C   0  0  0  0  0  0  0  0  0  0  0  0
    6.3650   -1.1680    0.0000 C   0  0  0  0  0  0  0  0  0  0  0  0
    3.7660    0.3320    0.0000 C   0  0  0  0  0  0  0  0  0  0  0  0
    7.6640    2.5820    0.0000 C   0  0  0  0  0  0  0  0  0  0  0  0
    7.6640   -1.9180    0.0000 C   0  0  0  0  0  0  0  0  0  0  0  0
    1.1680    0.3320    0.0000 C   0  0  0  0  0  0  0  0  0  0  0  0
   -0.1310    1.0820    0.0000 C   0  0  0  0  0  0  0  0  0  0  0  0
   -0.1310    2.5820    0.0000 C   0  0  0  0  0  0  0  0  0  0  0  0
   -1.4300    0.3320    0.0000 C   0  0  0  0  0  0  0  0  0  0  0  0
   -1.4300    3.3320    0.0000 C   0  0  0  0  0  0  0  0  0  0  0  0
   -2.7290    1.0820    0.0000 C   0  0  0  0  0  0  0  0  0  0  0  0
   -2.7290    2.5820    0.0000 C   0  0  0  0  0  0  0  0  0  0  0  0
    4.2940    2.0010    0.0000 H   0  0  0  0  0  0  0  0  0  0  0  0
    5.8370    2.0010    0.0000 H   0  0  0  0  0  0  0  0  0  0  0  0
    8.8450    1.2900    0.0000 H   0  0  0  0  0  0  0  0  0  0  0  0
    8.0740   -0.0460    0.0000 H   0  0  0  0  0  0  0  0  0  0  0  0
    5.9540   -2.2960    0.0000 H   0  0  0  0  0  0  0  0  0  0  0  0
    5.1830   -0.9600    0.0000 H   0  0  0  0  0  0  0  0  0  0  0  0
    2.9950   -0.5880    0.0000 H   0  0  0  0  0  0  0  0  0  0  0  0
    4.5380   -0.5880    0.0000 H   0  0  0  0  0  0  0  0  0  0  0  0
    8.8640    2.5820    0.0000 H   0  0  0  0  0  0  0  0  0  0  0  0
    7.6640    3.7820    0.0000 H   0  0  0  0  0  0  0  0  0  0  0  0
    6.4640    2.5820    0.0000 H   0  0  0  0  0  0  0  0  0  0  0  0
    7.0640   -2.9580    0.0000 H   0  0  0  0  0  0  0  0  0  0  0  0
    8.7030   -2.5180    0.0000 H   0  0  0  0  0  0  0  0  0  0  0  0
    8.2640   -0.8790    0.0000 H   0  0  0  0  0  0  0  0  0  0  0  0
    2.4670    2.2820    0.0000 H   0  0  0  0  0  0  0  0  0  0  0  0
    0.9090    3.1820    0.0000 H   0  0  0  0  0  0  0  0  0  0  0  0
   -1.4300   -0.8680    0.0000 H   0  0  0  0  0  0  0  0  0  0  0  0
   -1.4300    4.5320    0.0000 H   0  0  0  0  0  0  0  0  0  0  0  0
   -3.7680    0.4820    0.0000 H   0  0  0  0  0  0  0  0  0  0  0  0
   -4.0280    4.5320    0.0000 H   0  0  0  0  0  0  0  0  0  0  0  0
   -5.0670    2.7320    0.0000 H   0  0  0  0  0  0  0  0  0  0  0  0
  1 11  2  0  0  0  0
  2  5  1  0  0  0  0
  2  6  1  0  0  0  0
  2  7  1  0  0  0  0
  3  8  1  0  0  0  0
  3 11  1  0  0  0  0
  3 32  1  0  0  0  0
  4 17  1  0  0  0  0
  4 37  1  0  0  0  0
  4 38  1  0  0  0  0
  5  8  1  0  0  0  0
  5 18  1  0  0  0  0
  5 19  1  0  0  0  0
  6  9  1  0  0  0  0
  6 20  1  0  0  0  0
  6 21  1  0  0  0  0
  7 10  1  0  0  0  0
  7 22  1  0  0  0  0
  7 23  1  0  0  0  0
  8 24  1  0  0  0  0
  8 25  1  0  0  0  0
  9 26  1  0  0  0  0
  9 27  1  0  0  0  0
  9 28  1  0  0  0  0
 10 29  1  0  0  0  0
 10 30  1  0  0  0  0
 10 31  1  0  0  0  0
 11 12  1  0  0  0  0
 12 13  2  0  0  0  0
 12 14  1  0  0  0  0
 13 15  1  0  0  0  0
 13 33  1  0  0  0  0
 14 16  2  0  0  0  0
 14 34  1  0  0  0  0
 15 17  2  0  0  0  0
 15 35  1  0  0  0  0
 16 17  1  0  0  0  0
 16 36  1  0  0  0  0
M  END
$$$$
Quinidine
  MOE2018           2D

 48 51  0  0  1  0  0  0  0  0999 V2000
    0.9910   -1.7370    0.0000 O   0  0  0  0  0  0  0  0  0  0  0  0
   -3.5090   -1.6890    0.0000 O   0  0  0  0  0  0  0  0  0  0  0  0
    4.5580   -1.1430    0.0000 N   0  0  2  0  0  0  0  0  0  0  0  0
   -0.4540    3.4750    0.0000 N   0  0  0  0  0  0  0  0  0  0  0  0
    5.7700   -0.5320    0.0000 C   0  0  1  0  0  0  0  0  0  0  0  0
    3.2540   -0.4620    0.0000 C   0  0  2  0  0  0  0  0  0  0  0  0
    4.4960    0.1540    0.0000 C   0  0  0  0  0  0  0  0  0  0  0  0
    6.1450   -2.0530    0.0000 C   0  0  2  0  0  0  0  0  0  0  0  0
    6.9960    0.4990    0.0000 C   0  0  0  0  0  0  0  0  0  0  0  0
    4.9610   -2.7250    0.0000 C   0  0  0  0  0  0  0  0  0  0  0  0
    5.8730    0.1860    0.0000 C   0  0  0  0  0  0  0  0  0  0  0  0
    1.7540   -0.4460    0.0000 C   0  0  2  0  0  0  0  0  0  0  0  0
    7.5220   -2.6460    0.0000 C   0  0  0  0  0  0  0  0  0  0  0  0
    1.0180    0.8610    0.0000 C   0  0  0  0  0  0  0  0  0  0  0  0
    7.6970   -4.1360    0.0000 C   0  0  0  0  0  0  0  0  0  0  0  0
   -0.4820    0.8770    0.0000 C   0  0  0  0  0  0  0  0  0  0  0  0
    1.7820    2.1520    0.0000 C   0  0  0  0  0  0  0  0  0  0  0  0
   -1.2180    2.1840    0.0000 C   0  0  0  0  0  0  0  0  0  0  0  0
   -1.2460   -0.4140    0.0000 C   0  0  0  0  0  0  0  0  0  0  0  0
    1.0460    3.4590    0.0000 C   0  0  0  0  0  0  0  0  0  0  0  0
   -2.7180    2.2000    0.0000 C   0  0  0  0  0  0  0  0  0  0  0  0
   -2.7450   -0.3980    0.0000 C   0  0  0  0  0  0  0  0  0  0  0  0
   -3.4820    0.9090    0.0000 C   0  0  0  0  0  0  0  0  0  0  0  0
   -5.0090   -1.6730    0.0000 C   0  0  0  0  0  0  0  0  0  0  0  0
    6.9290   -0.8430    0.0000 H   0  0  0  0  0  0  0  0  0  0  0  0
    2.9440   -1.6210    0.0000 H   0  0  0  0  0  0  0  0  0  0  0  0
    5.2680    1.0730    0.0000 H   0  0  0  0  0  0  0  0  0  0  0  0
    3.7540    1.0980    0.0000 H   0  0  0  0  0  0  0  0  0  0  0  0
    6.1450   -3.2530    0.0000 H   0  0  0  0  0  0  0  0  0  0  0  0
    7.1260    1.6920    0.0000 H   0  0  0  0  0  0  0  0  0  0  0  0
    8.0540   -0.0660    0.0000 H   0  0  0  0  0  0  0  0  0  0  0  0
    3.8290   -3.1240    0.0000 H   0  0  0  0  0  0  0  0  0  0  0  0
    5.4580   -3.8170    0.0000 H   0  0  0  0  0  0  0  0  0  0  0  0
    4.7820    0.6850    0.0000 H   0  0  0  0  0  0  0  0  0  0  0  0
    5.9680    1.3820    0.0000 H   0  0  0  0  0  0  0  0  0  0  0  0
    0.5540   -0.4460    0.0000 H   0  0  0  0  0  0  0  0  0  0  0  0
    8.4850   -1.9290    0.0000 H   0  0  0  0  0  0  0  0  0  0  0  0
    1.5800   -2.7830    0.0000 H   0  0  0  0  0  0  0  0  0  0  0  0
    6.7350   -4.8530    0.0000 H   0  0  0  0  0  0  0  0  0  0  0  0
    8.7990   -4.6110    0.0000 H   0  0  0  0  0  0  0  0  0  0  0  0
    2.9820    2.1390    0.0000 H   0  0  0  0  0  0  0  0  0  0  0  0
   -0.6570   -1.4600    0.0000 H   0  0  0  0  0  0  0  0  0  0  0  0
    1.6570    4.4920    0.0000 H   0  0  0  0  0  0  0  0  0  0  0  0
   -3.3070    3.2450    0.0000 H   0  0  0  0  0  0  0  0  0  0  0  0
   -4.6820    0.9210    0.0000 H   0  0  0  0  0  0  0  0  0  0  0  0
   -4.9960   -0.4730    0.0000 H   0  0  0  0  0  0  0  0  0  0  0  0
   -6.2090   -1.6610    0.0000 H   0  0  0  0  0  0  0  0  0  0  0  0
   -5.0220   -2.8730    0.0000 H   0  0  0  0  0  0  0  0  0  0  0  0
  1 12  1  0  0  0  0
  1 38  1  0  0  0  0
  2 22  1  0  0  0  0
  2 24  1  0  0  0  0
  3  6  1  0  0  0  0
  3 10  1  0  0  0  0
  3 11  1  1  0  0  0
  4 18  1  0  0  0  0
  4 20  2  0  0  0  0
  5  7  1  0  0  0  0
  5  8  1  0  0  0  0
  5  9  1  0  0  0  0
  5 25  1  1  0  0  0
  6  7  1  0  0  0  0
  6 12  1  0  0  0  0
  6 26  1  6  0  0  0
  7 27  1  0  0  0  0
  7 28  1  0  0  0  0
  8 10  1  0  0  0  0
  8 13  1  1  0  0  0
  8 29  1  6  0  0  0
  9 11  1  0  0  0  0
  9 30  1  0  0  0  0
  9 31  1  0  0  0  0
 10 32  1  0  0  0  0
 10 33  1  0  0  0  0
 11 34  1  0  0  0  0
 11 35  1  0  0  0  0
 12 14  1  1  0  0  0
 12 36  1  6  0  0  0
 13 15  2  0  0  0  0
 13 37  1  0  0  0  0
 14 16  1  0  0  0  0
 14 17  2  0  0  0  0
 15 39  1  0  0  0  0
 15 40  1  0  0  0  0
 16 18  1  0  0  0  0
 16 19  2  0  0  0  0
 17 20  1  0  0  0  0
 17 41  1  0  0  0  0
 18 21  2  0  0  0  0
 19 22  1  0  0  0  0
 19 42  1  0  0  0  0
 20 43  1  0  0  0  0
 21 23  1  0  0  0  0
 21 44  1  0  0  0  0
 22 23  2  0  0  0  0
 23 45  1  0  0  0  0
 24 46  1  0  0  0  0
 24 47  1  0  0  0  0
 24 48  1  0  0  0  0
M  END
$$$$
Risperidone
  MOE2018           2D

 57 61  0  0  0  0  0  0  0  0999 V2000
   19.3710   -2.0360    0.0000 F   0  0  0  0  0  0  0  0  0  0  0  0
   15.2230    1.3130    0.0000 O   0  0  0  0  0  0  0  0  0  0  0  0
    4.5060   -1.2400    0.0000 O   0  0  0  0  0  0  0  0  0  0  0  0
    9.7020   -2.7400    0.0000 N   0  0  0  0  0  0  0  0  0  0  0  0
    3.2070   -3.4900    0.0000 N   0  0  0  0  0  0  0  0  0  0  0  0
   13.7560    1.0010    0.0000 N   0  0  0  0  0  0  0  0  0  0  0  0
    4.5060   -5.7400    0.0000 N   0  0  0  0  0  0  0  0  0  0  0  0
   12.3000   -1.2400    0.0000 C   0  0  0  0  0  0  0  0  0  0  0  0
   11.0010   -0.4900    0.0000 C   0  0  0  0  0  0  0  0  0  0  0  0
   12.3000   -2.7400    0.0000 C   0  0  0  0  0  0  0  0  0  0  0  0
    9.7020   -1.2400    0.0000 C   0  0  0  0  0  0  0  0  0  0  0  0
   11.0010   -3.4900    0.0000 C   0  0  0  0  0  0  0  0  0  0  0  0
    8.4030   -3.4900    0.0000 C   0  0  0  0  0  0  0  0  0  0  0  0
   13.5990   -0.4900    0.0000 C   0  0  0  0  0  0  0  0  0  0  0  0
    7.1040   -2.7400    0.0000 C   0  0  0  0  0  0  0  0  0  0  0  0
    5.8050   -3.4900    0.0000 C   0  0  0  0  0  0  0  0  0  0  0  0
   14.9700   -1.1000    0.0000 C   0  0  0  0  0  0  0  0  0  0  0  0
    1.9080   -2.7400    0.0000 C   0  0  0  0  0  0  0  0  0  0  0  0
    0.6090   -3.4900    0.0000 C   0  0  0  0  0  0  0  0  0  0  0  0
    3.2070   -4.9900    0.0000 C   0  0  0  0  0  0  0  0  0  0  0  0
    0.6090   -4.9900    0.0000 C   0  0  0  0  0  0  0  0  0  0  0  0
    1.9080   -5.7400    0.0000 C   0  0  0  0  0  0  0  0  0  0  0  0
    4.5060   -2.7400    0.0000 C   0  0  0  0  0  0  0  0  0  0  0  0
    5.8050   -4.9900    0.0000 C   0  0  0  0  0  0  0  0  0  0  0  0
   15.9730    0.0140    0.0000 C   0  0  0  0  0  0  0  0  0  0  0  0
   15.4330   -2.5270    0.0000 C   0  0  0  0  0  0  0  0  0  0  0  0
    7.1040   -5.7400    0.0000 C   0  0  0  0  0  0  0  0  0  0  0  0
   17.4410   -0.2980    0.0000 C   0  0  0  0  0  0  0  0  0  0  0  0
   16.9000   -2.8390    0.0000 C   0  0  0  0  0  0  0  0  0  0  0  0
   17.9040   -1.7240    0.0000 C   0  0  0  0  0  0  0  0  0  0  0  0
   12.3000   -0.0400    0.0000 H   0  0  0  0  0  0  0  0  0  0  0  0
   10.2300    0.4290    0.0000 H   0  0  0  0  0  0  0  0  0  0  0  0
   11.7730    0.4290    0.0000 H   0  0  0  0  0  0  0  0  0  0  0  0
   12.7110   -3.8680    0.0000 H   0  0  0  0  0  0  0  0  0  0  0  0
   13.4820   -2.5320    0.0000 H   0  0  0  0  0  0  0  0  0  0  0  0
    8.5200   -1.4490    0.0000 H   0  0  0  0  0  0  0  0  0  0  0  0
    9.2920   -0.1130    0.0000 H   0  0  0  0  0  0  0  0  0  0  0  0
   10.2300   -4.4100    0.0000 H   0  0  0  0  0  0  0  0  0  0  0  0
   11.7730   -4.4100    0.0000 H   0  0  0  0  0  0  0  0  0  0  0  0
    8.0170   -3.9500    0.0000 H   0  0  0  0  0  0  0  0  0  0  0  0
    9.1750   -4.4100    0.0000 H   0  0  0  0  0  0  0  0  0  0  0  0
    6.3330   -1.8210    0.0000 H   0  0  0  0  0  0  0  0  0  0  0  0
    7.8750   -1.8210    0.0000 H   0  0  0  0  0  0  0  0  0  0  0  0
    1.1370   -1.8210    0.0000 H   0  0  0  0  0  0  0  0  0  0  0  0
    2.6790   -1.8210    0.0000 H   0  0  0  0  0  0  0  0  0  0  0  0
   -0.5730   -3.6990    0.0000 H   0  0  0  0  0  0  0  0  0  0  0  0
    0.1990   -2.3630    0.0000 H   0  0  0  0  0  0  0  0  0  0  0  0
    0.1990   -6.1180    0.0000 H   0  0  0  0  0  0  0  0  0  0  0  0
   -0.5730   -4.7820    0.0000 H   0  0  0  0  0  0  0  0  0  0  0  0
    2.6790   -6.6600    0.0000 H   0  0  0  0  0  0  0  0  0  0  0  0
    1.1370   -6.6600    0.0000 H   0  0  0  0  0  0  0  0  0  0  0  0
   14.6300   -3.4190    0.0000 H   0  0  0  0  0  0  0  0  0  0  0  0
    6.5040   -6.7800    0.0000 H   0  0  0  0  0  0  0  0  0  0  0  0
    8.1430   -6.3400    0.0000 H   0  0  0  0  0  0  0  0  0  0  0  0
    7.4040   -5.2210    0.0000 H   0  0  0  0  0  0  0  0  0  0  0  0
   18.2440    0.5940    0.0000 H   0  0  0  0  0  0  0  0  0  0  0  0
   17.2710   -3.9800    0.0000 H   0  0  0  0  0  0  0  0  0  0  0  0
  1 30  1  0  0  0  0
  2  6  1  0  0  0  0
  2 25  1  0  0  0  0
  3 23  2  0  0  0  0
  4 11  1  0  0  0  0
  4 12  1  0  0  0  0
  4 13  1  0  0  0  0
  5 18  1  0  0  0  0
  5 20  1  0  0  0  0
  5 23  1  0  0  0  0
  6 14  2  0  0  0  0
  7 20  2  0  0  0  0
  7 24  1  0  0  0  0
  8  9  1  0  0  0  0
  8 10  1  0  0  0  0
  8 14  1  0  0  0  0
  8 31  1  0  0  0  0
  9 11  1  0  0  0  0
  9 32  1  0  0  0  0
  9 33  1  0  0  0  0
 10 12  1  0  0  0  0
 10 34  1  0  0  0  0
 10 35  1  0  0  0  0
 11 36  1  0  0  0  0
 11 37  1  0  0  0  0
 12 38  1  0  0  0  0
 12 39  1  0  0  0  0
 13 15  1  0  0  0  0
 13 40  1  0  0  0  0
 13 41  1  0  0  0  0
 14 17  1  0  0  0  0
 15 16  1  0  0  0  0
 15 42  1  0  0  0  0
 15 43  1  0  0  0  0
 16 23  1  0  0  0  0
 16 24  2  0  0  0  0
 17 25  2  0  0  0  0
 17 26  1  0  0  0  0
 18 19  1  0  0  0  0
 18 44  1  0  0  0  0
 18 45  1  0  0  0  0
 19 21  1  0  0  0  0
 19 46  1  0  0  0  0
 19 47  1  0  0  0  0
 20 22  1  0  0  0  0
 21 22  1  0  0  0  0
 21 48  1  0  0  0  0
 21 49  1  0  0  0  0
 22 50  1  0  0  0  0
 22 51  1  0  0  0  0
 24 27  1  0  0  0  0
 25 28  1  0  0  0  0
 26 29  2  0  0  0  0
 26 52  1  0  0  0  0
 27 53  1  0  0  0  0
 27 54  1  0  0  0  0
 27 55  1  0  0  0  0
 28 30  2  0  0  0  0
 28 56  1  0  0  0  0
 29 30  1  0  0  0  0
 29 57  1  0  0  0  0
M  END
$$$$
Sertindole
  MOE2018           2D

 57 61  0  0  0  0  0  0  0  0999 V2000
    2.7470    9.3470    0.0000 Cl  0  0  0  0  0  0  0  0  0  0  0  0
   -3.4780    0.2010    0.0000 F   0  0  0  0  0  0  0  0  0  0  0  0
   12.3510   -0.2040    0.0000 O   0  0  0  0  0  0  0  0  0  0  0  0
    8.3720    3.9260    0.0000 N   0  0  0  0  0  0  0  0  0  0  0  0
    1.5360    3.4960    0.0000 N   0  0  0  0  0  0  0  0  0  0  0  0
   12.0570    2.4530    0.0000 N   0  0  0  0  0  0  0  0  0  0  0  0
   14.3270    1.5960    0.0000 N   0  0  0  0  0  0  0  0  0  0  0  0
    5.3750    4.0670    0.0000 C   0  0  0  0  0  0  0  0  0  0  0  0
    6.0630    2.7340    0.0000 C   0  0  0  0  0  0  0  0  0  0  0  0
    6.1850    5.3290    0.0000 C   0  0  0  0  0  0  0  0  0  0  0  0
    7.5620    2.6640    0.0000 C   0  0  0  0  0  0  0  0  0  0  0  0
    7.6830    5.2590    0.0000 C   0  0  0  0  0  0  0  0  0  0  0  0
    3.8760    4.1370    0.0000 C   0  0  0  0  0  0  0  0  0  0  0  0
    9.8700    3.8560    0.0000 C   0  0  0  0  0  0  0  0  0  0  0  0
    3.0530    5.3910    0.0000 C   0  0  0  0  0  0  0  0  0  0  0  0
   10.5580    2.5230    0.0000 C   0  0  0  0  0  0  0  0  0  0  0  0
    2.9390    2.9660    0.0000 C   0  0  0  0  0  0  0  0  0  0  0  0
    1.6060    4.9940    0.0000 C   0  0  0  0  0  0  0  0  0  0  0  0
   12.9940    3.6240    0.0000 C   0  0  0  0  0  0  0  0  0  0  0  0
    3.4330    6.8420    0.0000 C   0  0  0  0  0  0  0  0  0  0  0  0
   14.3970    3.0940    0.0000 C   0  0  0  0  0  0  0  0  0  0  0  0
    0.5390    6.0490    0.0000 C   0  0  0  0  0  0  0  0  0  0  0  0
    0.2820    2.6720    0.0000 C   0  0  0  0  0  0  0  0  0  0  0  0
   12.8800    1.2000    0.0000 C   0  0  0  0  0  0  0  0  0  0  0  0
    2.3660    7.8960    0.0000 C   0  0  0  0  0  0  0  0  0  0  0  0
    0.9200    7.5000    0.0000 C   0  0  0  0  0  0  0  0  0  0  0  0
   -1.0580    3.3460    0.0000 C   0  0  0  0  0  0  0  0  0  0  0  0
    0.3690    1.1750    0.0000 C   0  0  0  0  0  0  0  0  0  0  0  0
   -2.3120    2.5220    0.0000 C   0  0  0  0  0  0  0  0  0  0  0  0
   -0.8850    0.3510    0.0000 C   0  0  0  0  0  0  0  0  0  0  0  0
   -2.2250    1.0240    0.0000 C   0  0  0  0  0  0  0  0  0  0  0  0
    4.7750    3.0280    0.0000 H   0  0  0  0  0  0  0  0  0  0  0  0
    6.2160    1.5440    0.0000 H   0  0  0  0  0  0  0  0  0  0  0  0
    4.9180    2.3770    0.0000 H   0  0  0  0  0  0  0  0  0  0  0  0
    6.4480    6.5000    0.0000 H   0  0  0  0  0  0  0  0  0  0  0  0
    5.0780    5.7920    0.0000 H   0  0  0  0  0  0  0  0  0  0  0  0
    8.6690    2.2010    0.0000 H   0  0  0  0  0  0  0  0  0  0  0  0
    7.2980    1.4930    0.0000 H   0  0  0  0  0  0  0  0  0  0  0  0
    8.8290    5.6160    0.0000 H   0  0  0  0  0  0  0  0  0  0  0  0
    7.5300    6.4490    0.0000 H   0  0  0  0  0  0  0  0  0  0  0  0
   11.0160    4.2130    0.0000 H   0  0  0  0  0  0  0  0  0  0  0  0
    9.7170    5.0460    0.0000 H   0  0  0  0  0  0  0  0  0  0  0  0
   10.7110    1.3330    0.0000 H   0  0  0  0  0  0  0  0  0  0  0  0
    9.4130    2.1660    0.0000 H   0  0  0  0  0  0  0  0  0  0  0  0
    3.2560    1.8090    0.0000 H   0  0  0  0  0  0  0  0  0  0  0  0
   13.5330    4.6960    0.0000 H   0  0  0  0  0  0  0  0  0  0  0  0
   11.9840    4.2720    0.0000 H   0  0  0  0  0  0  0  0  0  0  0  0
    4.5900    7.1590    0.0000 H   0  0  0  0  0  0  0  0  0  0  0  0
   15.5840    2.9130    0.0000 H   0  0  0  0  0  0  0  0  0  0  0  0
   14.7020    4.2550    0.0000 H   0  0  0  0  0  0  0  0  0  0  0  0
   -0.6180    5.7320    0.0000 H   0  0  0  0  0  0  0  0  0  0  0  0
   15.2640    0.8460    0.0000 H   0  0  0  0  0  0  0  0  0  0  0  0
    0.0660    8.3440    0.0000 H   0  0  0  0  0  0  0  0  0  0  0  0
   -1.1280    4.5440    0.0000 H   0  0  0  0  0  0  0  0  0  0  0  0
    1.4410    0.6360    0.0000 H   0  0  0  0  0  0  0  0  0  0  0  0
   -3.3840    3.0610    0.0000 H   0  0  0  0  0  0  0  0  0  0  0  0
   -0.8150   -0.8470    0.0000 H   0  0  0  0  0  0  0  0  0  0  0  0
  1 25  1  0  0  0  0
  2 31  1  0  0  0  0
  3 24  2  0  0  0  0
  4 11  1  0  0  0  0
  4 12  1  0  0  0  0
  4 14  1  0  0  0  0
  5 17  1  0  0  0  0
  5 18  1  0  0  0  0
  5 23  1  0  0  0  0
  6 16  1  0  0  0  0
  6 19  1  0  0  0  0
  6 24  1  0  0  0  0
  7 21  1  0  0  0  0
  7 24  1  0  0  0  0
  7 52  1  0  0  0  0
  8  9  1  0  0  0  0
  8 10  1  0  0  0  0
  8 13  1  0  0  0  0
  8 32  1  0  0  0  0
  9 11  1  0  0  0  0
  9 33  1  0  0  0  0
  9 34  1  0  0  0  0
 10 12  1  0  0  0  0
 10 35  1  0  0  0  0
 10 36  1  0  0  0  0
 11 37  1  0  0  0  0
 11 38  1  0  0  0  0
 12 39  1  0  0  0  0
 12 40  1  0  0  0  0
 13 15  1  0  0  0  0
 13 17  2  0  0  0  0
 14 16  1  0  0  0  0
 14 41  1  0  0  0  0
 14 42  1  0  0  0  0
 15 18  2  0  0  0  0
 15 20  1  0  0  0  0
 16 43  1  0  0  0  0
 16 44  1  0  0  0  0
 17 45  1  0  0  0  0
 18 22  1  0  0  0  0
 19 21  1  0  0  0  0
 19 46  1  0  0  0  0
 19 47  1  0  0  0  0
 20 25  2  0  0  0  0
 20 48  1  0  0  0  0
 21 49  1  0  0  0  0
 21 50  1  0  0  0  0
 22 26  2  0  0  0  0
 22 51  1  0  0  0  0
 23 27  2  0  0  0  0
 23 28  1  0  0  0  0
 25 26  1  0  0  0  0
 26 53  1  0  0  0  0
 27 29  1  0  0  0  0
 27 54  1  0  0  0  0
 28 30  2  0  0  0  0
 28 55  1  0  0  0  0
 29 31  2  0  0  0  0
 29 56  1  0  0  0  0
 30 31  1  0  0  0  0
 30 57  1  0  0  0  0
M  END
$$$$
Solifenacin
  MOE2018           2D

 53 57  0  0  1  0  0  0  0  0999 V2000
    0.7030   -2.6090    0.0000 O   0  0  0  0  0  0  0  0  0  0  0  0
   -0.6020   -0.3620    0.0000 O   0  0  0  0  0  0  0  0  0  0  0  0
    3.1630   -1.2770    0.0000 N   0  0  0  0  0  0  0  0  0  0  0  0
   -1.8950   -2.6160    0.0000 N   0  0  0  0  0  0  0  0  0  0  0  0
    3.2200   -2.6340    0.0000 C   0  0  0  0  0  0  0  0  0  0  0  0
    2.0000   -1.8560    0.0000 C   0  0  2  0  0  0  0  0  0  0  0  0
    4.7290   -2.2180    0.0000 C   0  0  0  0  0  0  0  0  0  0  0  0
    2.9170   -4.2060    0.0000 C   0  0  0  0  0  0  0  0  0  0  0  0
    1.9320   -0.4720    0.0000 C   0  0  0  0  0  0  0  0  0  0  0  0
    4.7390   -0.8560    0.0000 C   0  0  0  0  0  0  0  0  0  0  0  0
    2.6430   -3.0730    0.0000 C   0  0  0  0  0  0  0  0  0  0  0  0
   -0.5980   -1.8620    0.0000 C   0  0  0  0  0  0  0  0  0  0  0  0
   -3.1960   -1.8690    0.0000 C   0  0  2  0  0  0  0  0  0  0  0  0
   -1.8920   -4.1160    0.0000 C   0  0  0  0  0  0  0  0  0  0  0  0
   -4.4940   -2.6220    0.0000 C   0  0  0  0  0  0  0  0  0  0  0  0
   -3.1890   -4.8690    0.0000 C   0  0  0  0  0  0  0  0  0  0  0  0
   -4.4900   -4.1220    0.0000 C   0  0  0  0  0  0  0  0  0  0  0  0
   -3.2000   -0.3690    0.0000 C   0  0  0  0  0  0  0  0  0  0  0  0
   -5.7940   -1.8750    0.0000 C   0  0  0  0  0  0  0  0  0  0  0  0
   -5.7870   -4.8750    0.0000 C   0  0  0  0  0  0  0  0  0  0  0  0
   -4.5010    0.3780    0.0000 C   0  0  0  0  0  0  0  0  0  0  0  0
   -1.9030    0.3840    0.0000 C   0  0  0  0  0  0  0  0  0  0  0  0
   -7.0920   -2.6290    0.0000 C   0  0  0  0  0  0  0  0  0  0  0  0
   -7.0880   -4.1290    0.0000 C   0  0  0  0  0  0  0  0  0  0  0  0
   -4.5050    1.8780    0.0000 C   0  0  0  0  0  0  0  0  0  0  0  0
   -1.9070    1.8840    0.0000 C   0  0  0  0  0  0  0  0  0  0  0  0
   -3.2080    2.6310    0.0000 C   0  0  0  0  0  0  0  0  0  0  0  0
    4.0690   -3.4820    0.0000 H   0  0  0  0  0  0  0  0  0  0  0  0
    0.9610   -1.2560    0.0000 H   0  0  0  0  0  0  0  0  0  0  0  0
    5.9250   -2.1160    0.0000 H   0  0  0  0  0  0  0  0  0  0  0  0
    4.9400   -3.3990    0.0000 H   0  0  0  0  0  0  0  0  0  0  0  0
    1.9390   -4.9010    0.0000 H   0  0  0  0  0  0  0  0  0  0  0  0
    3.9270   -4.8550    0.0000 H   0  0  0  0  0  0  0  0  0  0  0  0
    2.3660    0.6470    0.0000 H   0  0  0  0  0  0  0  0  0  0  0  0
    0.7480   -0.2800    0.0000 H   0  0  0  0  0  0  0  0  0  0  0  0
    4.5340    0.3260    0.0000 H   0  0  0  0  0  0  0  0  0  0  0  0
    5.9350   -0.7570    0.0000 H   0  0  0  0  0  0  0  0  0  0  0  0
    1.6750   -2.3640    0.0000 H   0  0  0  0  0  0  0  0  0  0  0  0
    1.6450   -3.7380    0.0000 H   0  0  0  0  0  0  0  0  0  0  0  0
   -4.2360   -1.2690    0.0000 H   0  0  0  0  0  0  0  0  0  0  0  0
   -1.4790   -5.2420    0.0000 H   0  0  0  0  0  0  0  0  0  0  0  0
   -0.7100   -3.9040    0.0000 H   0  0  0  0  0  0  0  0  0  0  0  0
   -3.9580   -5.7900    0.0000 H   0  0  0  0  0  0  0  0  0  0  0  0
   -2.4150   -5.7860    0.0000 H   0  0  0  0  0  0  0  0  0  0  0  0
   -5.7970   -0.6750    0.0000 H   0  0  0  0  0  0  0  0  0  0  0  0
   -5.7840   -6.0750    0.0000 H   0  0  0  0  0  0  0  0  0  0  0  0
   -5.5390   -0.2250    0.0000 H   0  0  0  0  0  0  0  0  0  0  0  0
   -1.3830    0.0860    0.0000 H   0  0  0  0  0  0  0  0  0  0  0  0
   -8.1320   -2.0310    0.0000 H   0  0  0  0  0  0  0  0  0  0  0  0
   -8.1260   -4.7310    0.0000 H   0  0  0  0  0  0  0  0  0  0  0  0
   -5.5450    2.4750    0.0000 H   0  0  0  0  0  0  0  0  0  0  0  0
   -0.8690    2.4870    0.0000 H   0  0  0  0  0  0  0  0  0  0  0  0
   -3.2110    3.8310    0.0000 H   0  0  0  0  0  0  0  0  0  0  0  0
  6  1  1  1  0  0  0
  1 12  1  0  0  0  0
  2 12  2  0  0  0  0
  3  9  1  0  0  0  0
  3 10  1  0  0  0  0
  3 11  1  0  0  0  0
  4 12  1  0  0  0  0
  4 13  1  0  0  0  0
  4 14  1  0  0  0  0
  5  6  1  0  0  0  0
  5  7  1  0  0  0  0
  5  8  1  0  0  0  0
  5 28  1  0  0  0  0
  6  9  1  0  0  0  0
  6 29  1  6  0  0  0
  7 10  1  0  0  0  0
  7 30  1  0  0  0  0
  7 31  1  0  0  0  0
  8 11  1  0  0  0  0
  8 32  1  0  0  0  0
  8 33  1  0  0  0  0
  9 34  1  0  0  0  0
  9 35  1  0  0  0  0
 10 36  1  0  0  0  0
 10 37  1  0  0  0  0
 11 38  1  0  0  0  0
 11 39  1  0  0  0  0
 13 15  1  0  0  0  0
 13 18  1  6  0  0  0
 13 40  1  1  0  0  0
 14 16  1  0  0  0  0
 14 41  1  0  0  0  0
 14 42  1  0  0  0  0
 15 17  1  0  0  0  0
 15 19  2  0  0  0  0
 16 17  1  0  0  0  0
 16 43  1  0  0  0  0
 16 44  1  0  0  0  0
 17 20  2  0  0  0  0
 18 21  2  0  0  0  0
 18 22  1  0  0  0  0
 19 23  1  0  0  0  0
 19 45  1  0  0  0  0
 20 24  1  0  0  0  0
 20 46  1  0  0  0  0
 21 25  1  0  0  0  0
 21 47  1  0  0  0  0
 22 26  2  0  0  0  0
 22 48  1  0  0  0  0
 23 24  2  0  0  0  0
 23 49  1  0  0  0  0
 24 50  1  0  0  0  0
 25 27  2  0  0  0  0
 25 51  1  0  0  0  0
 26 27  1  0  0  0  0
 26 52  1  0  0  0  0
 27 53  1  0  0  0  0
M  END
$$$$
Sotalol
  MOE2018           2D

 38 38  0  0  1  0  0  0  0  0999 V2000
   -1.5160   -4.6250    0.0000 S   0  0  0  0  0  0  0  0  0  0  0  0
    4.9800   -0.8750    0.0000 O   0  0  0  0  0  0  0  0  0  0  0  0
   -0.7660   -3.3260    0.0000 O   0  0  0  0  0  0  0  0  0  0  0  0
   -2.2660   -5.9240    0.0000 O   0  0  0  0  0  0  0  0  0  0  0  0
    7.5780   -2.3750    0.0000 N   0  0  0  0  0  0  0  0  0  0  0  0
   -0.2170   -5.3750    0.0000 N   0  0  0  0  0  0  0  0  0  0  0  0
    4.9800   -2.3750    0.0000 C   0  0  1  0  0  0  0  0  0  0  0  0
    6.2790   -3.1250    0.0000 C   0  0  0  0  0  0  0  0  0  0  0  0
    8.8770   -3.1250    0.0000 C   0  0  0  0  0  0  0  0  0  0  0  0
    3.6810   -3.1250    0.0000 C   0  0  0  0  0  0  0  0  0  0  0  0
    2.3820   -2.3750    0.0000 C   0  0  0  0  0  0  0  0  0  0  0  0
    3.6810   -4.6250    0.0000 C   0  0  0  0  0  0  0  0  0  0  0  0
    8.8770   -4.6250    0.0000 C   0  0  0  0  0  0  0  0  0  0  0  0
   10.1760   -2.3750    0.0000 C   0  0  0  0  0  0  0  0  0  0  0  0
    1.0830   -4.6250    0.0000 C   0  0  0  0  0  0  0  0  0  0  0  0
    1.0830   -3.1250    0.0000 C   0  0  0  0  0  0  0  0  0  0  0  0
    2.3820   -5.3750    0.0000 C   0  0  0  0  0  0  0  0  0  0  0  0
   -2.8150   -3.8750    0.0000 C   0  0  0  0  0  0  0  0  0  0  0  0
    6.0190   -1.7750    0.0000 H   0  0  0  0  0  0  0  0  0  0  0  0
    7.0500   -4.0440    0.0000 H   0  0  0  0  0  0  0  0  0  0  0  0
    5.5070   -4.0440    0.0000 H   0  0  0  0  0  0  0  0  0  0  0  0
    9.9160   -3.7250    0.0000 H   0  0  0  0  0  0  0  0  0  0  0  0
    7.5780   -1.1750    0.0000 H   0  0  0  0  0  0  0  0  0  0  0  0
    2.3820   -1.1750    0.0000 H   0  0  0  0  0  0  0  0  0  0  0  0
    4.7200   -5.2250    0.0000 H   0  0  0  0  0  0  0  0  0  0  0  0
    7.6770   -4.6250    0.0000 H   0  0  0  0  0  0  0  0  0  0  0  0
    8.8770   -5.8250    0.0000 H   0  0  0  0  0  0  0  0  0  0  0  0
   10.0770   -4.6250    0.0000 H   0  0  0  0  0  0  0  0  0  0  0  0
   10.7760   -3.4140    0.0000 H   0  0  0  0  0  0  0  0  0  0  0  0
   11.2150   -1.7750    0.0000 H   0  0  0  0  0  0  0  0  0  0  0  0
    9.5760   -1.3360    0.0000 H   0  0  0  0  0  0  0  0  0  0  0  0
    0.0430   -2.5250    0.0000 H   0  0  0  0  0  0  0  0  0  0  0  0
    2.3820   -6.5750    0.0000 H   0  0  0  0  0  0  0  0  0  0  0  0
    6.0190   -0.2750    0.0000 H   0  0  0  0  0  0  0  0  0  0  0  0
   -0.2170   -6.5750    0.0000 H   0  0  0  0  0  0  0  0  0  0  0  0
   -2.2150   -2.8360    0.0000 H   0  0  0  0  0  0  0  0  0  0  0  0
   -3.8540   -3.2750    0.0000 H   0  0  0  0  0  0  0  0  0  0  0  0
   -3.4150   -4.9140    0.0000 H   0  0  0  0  0  0  0  0  0  0  0  0
  1  3  2  0  0  0  0
  1  4  2  0  0  0  0
  1  6  1  0  0  0  0
  1 18  1  0  0  0  0
  2  7  1  0  0  0  0
  2 34  1  0  0  0  0
  5  8  1  0  0  0  0
  5  9  1  0  0  0  0
  5 23  1  0  0  0  0
  6 15  1  0  0  0  0
  6 35  1  0  0  0  0
  7  8  1  1  0  0  0
  7 10  1  0  0  0  0
  7 19  1  6  0  0  0
  8 20  1  0  0  0  0
  8 21  1  0  0  0  0
  9 13  1  0  0  0  0
  9 14  1  0  0  0  0
  9 22  1  0  0  0  0
 10 11  2  0  0  0  0
 10 12  1  0  0  0  0
 11 16  1  0  0  0  0
 11 24  1  0  0  0  0
 12 17  2  0  0  0  0
 12 25  1  0  0  0  0
 13 26  1  0  0  0  0
 13 27  1  0  0  0  0
 13 28  1  0  0  0  0
 14 29  1  0  0  0  0
 14 30  1  0  0  0  0
 14 31  1  0  0  0  0
 15 16  2  0  0  0  0
 15 17  1  0  0  0  0
 16 32  1  0  0  0  0
 17 33  1  0  0  0  0
 18 36  1  0  0  0  0
 18 37  1  0  0  0  0
 18 38  1  0  0  0  0
M  END
$$$$
Sparfloxacin
  MOE2018           2D

 50 53  0  0  1  0  0  0  0  0999 V2000
    3.4770    1.7290    0.0000 F   0  0  0  0  0  0  0  0  0  0  0  0
    3.4770   -3.4670    0.0000 F   0  0  0  0  0  0  0  0  0  0  0  0
   -1.7730   -2.1680    0.0000 O   0  0  0  0  0  0  0  0  0  0  0  0
   -4.0230    1.7290    0.0000 O   0  0  0  0  0  0  0  0  0  0  0  0
   -4.0230   -0.8690    0.0000 O   0  0  0  0  0  0  0  0  0  0  0  0
    0.4770    1.7290    0.0000 N   0  0  0  0  0  0  0  0  0  0  0  0
    4.9770   -0.8690    0.0000 N   0  0  0  0  0  0  0  0  0  0  0  0
    7.9770   -0.8690    0.0000 N   0  0  0  0  0  0  0  0  0  0  0  0
    0.4770   -3.4670    0.0000 N   0  0  0  0  0  0  0  0  0  0  0  0
    1.2270    3.0280    0.0000 C   0  0  0  0  0  0  0  0  0  0  0  0
    2.5260    3.7780    0.0000 C   0  0  0  0  0  0  0  0  0  0  0  0
    1.2270    4.5280    0.0000 C   0  0  0  0  0  0  0  0  0  0  0  0
    1.2270    0.4300    0.0000 C   0  0  0  0  0  0  0  0  0  0  0  0
    7.2270    0.4300    0.0000 C   0  0  2  0  0  0  0  0  0  0  0  0
    7.2270   -2.1680    0.0000 C   0  0  1  0  0  0  0  0  0  0  0  0
    5.7270    0.4300    0.0000 C   0  0  0  0  0  0  0  0  0  0  0  0
    5.7270   -2.1680    0.0000 C   0  0  0  0  0  0  0  0  0  0  0  0
    3.4770   -0.8690    0.0000 C   0  0  0  0  0  0  0  0  0  0  0  0
   -1.0230    1.7290    0.0000 C   0  0  0  0  0  0  0  0  0  0  0  0
    0.4770   -0.8690    0.0000 C   0  0  0  0  0  0  0  0  0  0  0  0
    2.7270    0.4300    0.0000 C   0  0  0  0  0  0  0  0  0  0  0  0
    1.2270   -2.1680    0.0000 C   0  0  0  0  0  0  0  0  0  0  0  0
   -1.7730    0.4300    0.0000 C   0  0  0  0  0  0  0  0  0  0  0  0
    2.7270   -2.1680    0.0000 C   0  0  0  0  0  0  0  0  0  0  0  0
   -1.0230   -0.8690    0.0000 C   0  0  0  0  0  0  0  0  0  0  0  0
    7.9770    1.7290    0.0000 C   0  0  0  0  0  0  0  0  0  0  0  0
    7.9770   -3.4670    0.0000 C   0  0  0  0  0  0  0  0  0  0  0  0
   -3.2730    0.4300    0.0000 C   0  0  0  0  0  0  0  0  0  0  0  0
    0.1880    3.6280    0.0000 H   0  0  0  0  0  0  0  0  0  0  0  0
    3.2970    4.6970    0.0000 H   0  0  0  0  0  0  0  0  0  0  0  0
    3.2970    2.8590    0.0000 H   0  0  0  0  0  0  0  0  0  0  0  0
    0.0450    4.7360    0.0000 H   0  0  0  0  0  0  0  0  0  0  0  0
    1.6370    5.6560    0.0000 H   0  0  0  0  0  0  0  0  0  0  0  0
    8.4270    0.4300    0.0000 H   0  0  0  0  0  0  0  0  0  0  0  0
    8.4270   -2.1680    0.0000 H   0  0  0  0  0  0  0  0  0  0  0  0
    4.5990    0.8400    0.0000 H   0  0  0  0  0  0  0  0  0  0  0  0
    5.9350    1.6120    0.0000 H   0  0  0  0  0  0  0  0  0  0  0  0
    4.5990   -2.5790    0.0000 H   0  0  0  0  0  0  0  0  0  0  0  0
    5.9350   -3.3500    0.0000 H   0  0  0  0  0  0  0  0  0  0  0  0
   -1.6230    2.7680    0.0000 H   0  0  0  0  0  0  0  0  0  0  0  0
    9.1770   -0.8690    0.0000 H   0  0  0  0  0  0  0  0  0  0  0  0
    9.0160    1.1290    0.0000 H   0  0  0  0  0  0  0  0  0  0  0  0
    8.5770    2.7680    0.0000 H   0  0  0  0  0  0  0  0  0  0  0  0
    6.9380    2.3290    0.0000 H   0  0  0  0  0  0  0  0  0  0  0  0
    6.9380   -4.0670    0.0000 H   0  0  0  0  0  0  0  0  0  0  0  0
    8.5770   -4.5060    0.0000 H   0  0  0  0  0  0  0  0  0  0  0  0
    9.0160   -2.8670    0.0000 H   0  0  0  0  0  0  0  0  0  0  0  0
   -0.7230   -3.4670    0.0000 H   0  0  0  0  0  0  0  0  0  0  0  0
    1.0770   -4.5060    0.0000 H   0  0  0  0  0  0  0  0  0  0  0  0
   -5.2230    1.7290    0.0000 H   0  0  0  0  0  0  0  0  0  0  0  0
  1 21  1  0  0  0  0
  2 24  1  0  0  0  0
  3 25  2  0  0  0  0
  4 28  1  0  0  0  0
  4 50  1  0  0  0  0
  5 28  2  0  0  0  0
  6 10  1  0  0  0  0
  6 13  1  0  0  0  0
  6 19  1  0  0  0  0
  7 16  1  0  0  0  0
  7 17  1  0  0  0  0
  7 18  1  0  0  0  0
  8 14  1  0  0  0  0
  8 15  1  0  0  0  0
  8 41  1  0  0  0  0
  9 22  1  0  0  0  0
  9 48  1  0  0  0  0
  9 49  1  0  0  0  0
 10 11  1  0  0  0  0
 10 12  1  0  0  0  0
 10 29  1  0  0  0  0
 11 12  1  0  0  0  0
 11 30  1  0  0  0  0
 11 31  1  0  0  0  0
 12 32  1  0  0  0  0
 12 33  1  0  0  0  0
 13 20  1  0  0  0  0
 13 21  2  0  0  0  0
 14 16  1  0  0  0  0
 14 26  1  6  0  0  0
 14 34  1  1  0  0  0
 15 17  1  0  0  0  0
 15 27  1  6  0  0  0
 15 35  1  1  0  0  0
 16 36  1  0  0  0  0
 16 37  1  0  0  0  0
 17 38  1  0  0  0  0
 17 39  1  0  0  0  0
 18 21  1  0  0  0  0
 18 24  2  0  0  0  0
 19 23  2  0  0  0  0
 19 40  1  0  0  0  0
 20 22  2  0  0  0  0
 20 25  1  0  0  0  0
 22 24  1  0  0  0  0
 23 25  1  0  0  0  0
 23 28  1  0  0  0  0
 26 42  1  0  0  0  0
 26 43  1  0  0  0  0
 26 44  1  0  0  0  0
 27 45  1  0  0  0  0
 27 46  1  0  0  0  0
 27 47  1  0  0  0  0
M  END
$$$$
Terfenadine
  MOE2018           2D

 76 79  0  0  1  0  0  0  0  0999 V2000
   -3.9380    3.9380    0.0000 O   0  0  0  0  0  0  0  0  0  0  0  0
    4.3120    1.5410    0.0000 O   0  0  0  0  0  0  0  0  0  0  0  0
    0.5620    5.4380    0.0000 N   0  0  0  0  0  0  0  0  0  0  0  0
   -2.4380    5.4380    0.0000 C   0  0  0  0  0  0  0  0  0  0  0  0
   -1.6880    6.7370    0.0000 C   0  0  0  0  0  0  0  0  0  0  0  0
   -1.6880    4.1390    0.0000 C   0  0  0  0  0  0  0  0  0  0  0  0
   -3.9380    5.4380    0.0000 C   0  0  0  0  0  0  0  0  0  0  0  0
   -0.1880    6.7370    0.0000 C   0  0  0  0  0  0  0  0  0  0  0  0
   -0.1880    4.1390    0.0000 C   0  0  0  0  0  0  0  0  0  0  0  0
    2.0620    5.4380    0.0000 C   0  0  0  0  0  0  0  0  0  0  0  0
   -5.4380    5.4380    0.0000 C   0  0  0  0  0  0  0  0  0  0  0  0
   -3.9380    6.9380    0.0000 C   0  0  0  0  0  0  0  0  0  0  0  0
    2.8120    4.1390    0.0000 C   0  0  0  0  0  0  0  0  0  0  0  0
    4.3120    4.1390    0.0000 C   0  0  0  0  0  0  0  0  0  0  0  0
   -6.1880    6.7370    0.0000 C   0  0  0  0  0  0  0  0  0  0  0  0
   -5.2370    7.6880    0.0000 C   0  0  0  0  0  0  0  0  0  0  0  0
   -6.1880    4.1390    0.0000 C   0  0  0  0  0  0  0  0  0  0  0  0
   -2.6390    7.6880    0.0000 C   0  0  0  0  0  0  0  0  0  0  0  0
    5.0620    2.8400    0.0000 C   0  0  1  0  0  0  0  0  0  0  0  0
   -7.6880    6.7370    0.0000 C   0  0  0  0  0  0  0  0  0  0  0  0
   -5.2370    9.1880    0.0000 C   0  0  0  0  0  0  0  0  0  0  0  0
   -7.6880    4.1390    0.0000 C   0  0  0  0  0  0  0  0  0  0  0  0
   -2.6390    9.1880    0.0000 C   0  0  0  0  0  0  0  0  0  0  0  0
    6.5620    2.8400    0.0000 C   0  0  0  0  0  0  0  0  0  0  0  0
   -8.4380    5.4380    0.0000 C   0  0  0  0  0  0  0  0  0  0  0  0
   -3.9380    9.9380    0.0000 C   0  0  0  0  0  0  0  0  0  0  0  0
   11.0620    2.8400    0.0000 C   0  0  0  0  0  0  0  0  0  0  0  0
    9.5620    2.8400    0.0000 C   0  0  0  0  0  0  0  0  0  0  0  0
    7.3120    1.5410    0.0000 C   0  0  0  0  0  0  0  0  0  0  0  0
    7.3120    4.1390    0.0000 C   0  0  0  0  0  0  0  0  0  0  0  0
    8.8120    1.5410    0.0000 C   0  0  0  0  0  0  0  0  0  0  0  0
    8.8120    4.1390    0.0000 C   0  0  0  0  0  0  0  0  0  0  0  0
   11.0620    4.3400    0.0000 C   0  0  0  0  0  0  0  0  0  0  0  0
   12.5620    2.8400    0.0000 C   0  0  0  0  0  0  0  0  0  0  0  0
   11.0620    1.3400    0.0000 C   0  0  0  0  0  0  0  0  0  0  0  0
   -1.2380    5.4380    0.0000 H   0  0  0  0  0  0  0  0  0  0  0  0
   -1.4790    7.9190    0.0000 H   0  0  0  0  0  0  0  0  0  0  0  0
   -2.8150    7.1470    0.0000 H   0  0  0  0  0  0  0  0  0  0  0  0
   -1.4790    2.9570    0.0000 H   0  0  0  0  0  0  0  0  0  0  0  0
   -2.8150    3.7280    0.0000 H   0  0  0  0  0  0  0  0  0  0  0  0
    0.9400    7.1470    0.0000 H   0  0  0  0  0  0  0  0  0  0  0  0
   -0.3960    7.9190    0.0000 H   0  0  0  0  0  0  0  0  0  0  0  0
    0.9400    3.7280    0.0000 H   0  0  0  0  0  0  0  0  0  0  0  0
   -0.3960    2.9570    0.0000 H   0  0  0  0  0  0  0  0  0  0  0  0
    3.1900    5.8480    0.0000 H   0  0  0  0  0  0  0  0  0  0  0  0
    1.8540    6.6200    0.0000 H   0  0  0  0  0  0  0  0  0  0  0  0
    3.0210    2.9570    0.0000 H   0  0  0  0  0  0  0  0  0  0  0  0
    1.6850    3.7280    0.0000 H   0  0  0  0  0  0  0  0  0  0  0  0
   -4.9770    3.3380    0.0000 H   0  0  0  0  0  0  0  0  0  0  0  0
    5.4400    4.5490    0.0000 H   0  0  0  0  0  0  0  0  0  0  0  0
    4.1040    5.3210    0.0000 H   0  0  0  0  0  0  0  0  0  0  0  0
   -5.8880    7.2560    0.0000 H   0  0  0  0  0  0  0  0  0  0  0  0
   -5.7560    7.3880    0.0000 H   0  0  0  0  0  0  0  0  0  0  0  0
   -5.5880    3.1000    0.0000 H   0  0  0  0  0  0  0  0  0  0  0  0
   -2.1190    7.3880    0.0000 H   0  0  0  0  0  0  0  0  0  0  0  0
    5.6620    1.8010    0.0000 H   0  0  0  0  0  0  0  0  0  0  0  0
   -8.2880    7.7760    0.0000 H   0  0  0  0  0  0  0  0  0  0  0  0
   -6.2760    9.7880    0.0000 H   0  0  0  0  0  0  0  0  0  0  0  0
   -8.2880    3.1000    0.0000 H   0  0  0  0  0  0  0  0  0  0  0  0
   -1.6000    9.7880    0.0000 H   0  0  0  0  0  0  0  0  0  0  0  0
   -9.6380    5.4380    0.0000 H   0  0  0  0  0  0  0  0  0  0  0  0
   -3.9380   11.1380    0.0000 H   0  0  0  0  0  0  0  0  0  0  0  0
    6.7120    0.5010    0.0000 H   0  0  0  0  0  0  0  0  0  0  0  0
    6.7120    5.1780    0.0000 H   0  0  0  0  0  0  0  0  0  0  0  0
    4.9120    0.5010    0.0000 H   0  0  0  0  0  0  0  0  0  0  0  0
    9.4120    0.5010    0.0000 H   0  0  0  0  0  0  0  0  0  0  0  0
    9.4120    5.1780    0.0000 H   0  0  0  0  0  0  0  0  0  0  0  0
   11.6620    4.3400    0.0000 H   0  0  0  0  0  0  0  0  0  0  0  0
   11.0620    5.5400    0.0000 H   0  0  0  0  0  0  0  0  0  0  0  0
    9.8620    4.3400    0.0000 H   0  0  0  0  0  0  0  0  0  0  0  0
   12.5620    2.2400    0.0000 H   0  0  0  0  0  0  0  0  0  0  0  0
   13.7620    2.8400    0.0000 H   0  0  0  0  0  0  0  0  0  0  0  0
   12.5620    3.4400    0.0000 H   0  0  0  0  0  0  0  0  0  0  0  0
    9.8620    1.3400    0.0000 H   0  0  0  0  0  0  0  0  0  0  0  0
   11.0620    0.1400    0.0000 H   0  0  0  0  0  0  0  0  0  0  0  0
   11.6620    1.3400    0.0000 H   0  0  0  0  0  0  0  0  0  0  0  0
  1  7  1  0  0  0  0
  1 49  1  0  0  0  0
 19  2  1  1  0  0  0
  2 65  1  0  0  0  0
  3  8  1  0  0  0  0
  3  9  1  0  0  0  0
  3 10  1  0  0  0  0
  4  5  1  0  0  0  0
  4  6  1  0  0  0  0
  4  7  1  0  0  0  0
  4 36  1  0  0  0  0
  5  8  1  0  0  0  0
  5 37  1  0  0  0  0
  5 38  1  0  0  0  0
  6  9  1  0  0  0  0
  6 39  1  0  0  0  0
  6 40  1  0  0  0  0
  7 11  1  0  0  0  0
  7 12  1  0  0  0  0
  8 41  1  0  0  0  0
  8 42  1  0  0  0  0
  9 43  1  0  0  0  0
  9 44  1  0  0  0  0
 10 13  1  0  0  0  0
 10 45  1  0  0  0  0
 10 46  1  0  0  0  0
 11 15  2  0  0  0  0
 11 17  1  0  0  0  0
 12 16  2  0  0  0  0
 12 18  1  0  0  0  0
 13 14  1  0  0  0  0
 13 47  1  0  0  0  0
 13 48  1  0  0  0  0
 14 19  1  0  0  0  0
 14 50  1  0  0  0  0
 14 51  1  0  0  0  0
 15 20  1  0  0  0  0
 15 52  1  0  0  0  0
 16 21  1  0  0  0  0
 16 53  1  0  0  0  0
 17 22  2  0  0  0  0
 17 54  1  0  0  0  0
 18 23  2  0  0  0  0
 18 55  1  0  0  0  0
 19 24  1  0  0  0  0
 19 56  1  6  0  0  0
 20 25  2  0  0  0  0
 20 57  1  0  0  0  0
 21 26  2  0  0  0  0
 21 58  1  0  0  0  0
 22 25  1  0  0  0  0
 22 59  1  0  0  0  0
 23 26  1  0  0  0  0
 23 60  1  0  0  0  0
 24 29  2  0  0  0  0
 24 30  1  0  0  0  0
 25 61  1  0  0  0  0
 26 62  1  0  0  0  0
 27 28  1  0  0  0  0
 27 33  1  0  0  0  0
 27 34  1  0  0  0  0
 27 35  1  0  0  0  0
 28 31  2  0  0  0  0
 28 32  1  0  0  0  0
 29 31  1  0  0  0  0
 29 63  1  0  0  0  0
 30 32  2  0  0  0  0
 30 64  1  0  0  0  0
 31 66  1  0  0  0  0
 32 67  1  0  0  0  0
 33 68  1  0  0  0  0
 33 69  1  0  0  0  0
 33 70  1  0  0  0  0
 34 71  1  0  0  0  0
 34 72  1  0  0  0  0
 34 73  1  0  0  0  0
 35 74  1  0  0  0  0
 35 75  1  0  0  0  0
 35 76  1  0  0  0  0
M  END
$$$$
Terodiline
  MOE2018           2D

 48 49  0  0  1  0  0  0  0  0999 V2000
    6.3790   -1.7090    0.0000 N   0  0  0  0  0  0  0  0  0  0  0  0
    5.0800   -0.9590    0.0000 C   0  0  2  0  0  0  0  0  0  0  0  0
    3.7810   -1.7090    0.0000 C   0  0  0  0  0  0  0  0  0  0  0  0
    7.6780   -0.9590    0.0000 C   0  0  0  0  0  0  0  0  0  0  0  0
    2.4820   -0.9590    0.0000 C   0  0  0  0  0  0  0  0  0  0  0  0
    5.0800    0.5410    0.0000 C   0  0  0  0  0  0  0  0  0  0  0  0
    1.1830   -1.7090    0.0000 C   0  0  0  0  0  0  0  0  0  0  0  0
    2.4820    0.5410    0.0000 C   0  0  0  0  0  0  0  0  0  0  0  0
    8.9770   -0.2090    0.0000 C   0  0  0  0  0  0  0  0  0  0  0  0
    8.4280   -2.2580    0.0000 C   0  0  0  0  0  0  0  0  0  0  0  0
    6.9280    0.3400    0.0000 C   0  0  0  0  0  0  0  0  0  0  0  0
   -0.1170   -0.9590    0.0000 C   0  0  0  0  0  0  0  0  0  0  0  0
    1.1830    1.2910    0.0000 C   0  0  0  0  0  0  0  0  0  0  0  0
    1.1830   -3.2090    0.0000 C   0  0  0  0  0  0  0  0  0  0  0  0
    3.7810    1.2910    0.0000 C   0  0  0  0  0  0  0  0  0  0  0  0
   -1.4160   -1.7090    0.0000 C   0  0  0  0  0  0  0  0  0  0  0  0
    1.1830    2.7910    0.0000 C   0  0  0  0  0  0  0  0  0  0  0  0
   -0.1170   -3.9590    0.0000 C   0  0  0  0  0  0  0  0  0  0  0  0
    3.7810    2.7910    0.0000 C   0  0  0  0  0  0  0  0  0  0  0  0
   -1.4160   -3.2090    0.0000 C   0  0  0  0  0  0  0  0  0  0  0  0
    2.4820    3.5410    0.0000 C   0  0  0  0  0  0  0  0  0  0  0  0
    5.0800   -2.1590    0.0000 H   0  0  0  0  0  0  0  0  0  0  0  0
    3.0090   -2.6280    0.0000 H   0  0  0  0  0  0  0  0  0  0  0  0
    4.5520   -2.6280    0.0000 H   0  0  0  0  0  0  0  0  0  0  0  0
    2.4820   -2.1590    0.0000 H   0  0  0  0  0  0  0  0  0  0  0  0
    6.3790   -2.9090    0.0000 H   0  0  0  0  0  0  0  0  0  0  0  0
    6.2800    0.5410    0.0000 H   0  0  0  0  0  0  0  0  0  0  0  0
    5.0800    1.7410    0.0000 H   0  0  0  0  0  0  0  0  0  0  0  0
    3.8800    0.5410    0.0000 H   0  0  0  0  0  0  0  0  0  0  0  0
    9.2770   -0.7290    0.0000 H   0  0  0  0  0  0  0  0  0  0  0  0
   10.0160    0.3910    0.0000 H   0  0  0  0  0  0  0  0  0  0  0  0
    8.6770    0.3100    0.0000 H   0  0  0  0  0  0  0  0  0  0  0  0
    7.3880   -2.8580    0.0000 H   0  0  0  0  0  0  0  0  0  0  0  0
    9.0280   -3.2970    0.0000 H   0  0  0  0  0  0  0  0  0  0  0  0
    8.9470   -1.9580    0.0000 H   0  0  0  0  0  0  0  0  0  0  0  0
    7.4470    0.6400    0.0000 H   0  0  0  0  0  0  0  0  0  0  0  0
    6.3280    1.3790    0.0000 H   0  0  0  0  0  0  0  0  0  0  0  0
    5.8880   -0.2600    0.0000 H   0  0  0  0  0  0  0  0  0  0  0  0
   -0.1170    0.2410    0.0000 H   0  0  0  0  0  0  0  0  0  0  0  0
    0.1430    0.6910    0.0000 H   0  0  0  0  0  0  0  0  0  0  0  0
    2.2220   -3.8090    0.0000 H   0  0  0  0  0  0  0  0  0  0  0  0
    4.3000    0.9910    0.0000 H   0  0  0  0  0  0  0  0  0  0  0  0
   -2.4550   -1.1090    0.0000 H   0  0  0  0  0  0  0  0  0  0  0  0
    0.1430    3.3910    0.0000 H   0  0  0  0  0  0  0  0  0  0  0  0
   -0.1170   -5.1590    0.0000 H   0  0  0  0  0  0  0  0  0  0  0  0
    4.8200    3.3910    0.0000 H   0  0  0  0  0  0  0  0  0  0  0  0
   -2.4550   -3.8090    0.0000 H   0  0  0  0  0  0  0  0  0  0  0  0
    2.4820    4.7410    0.0000 H   0  0  0  0  0  0  0  0  0  0  0  0
  1  2  1  0  0  0  0
  1  4  1  0  0  0  0
  1 26  1  0  0  0  0
  2  3  1  6  0  0  0
  2  6  1  0  0  0  0
  2 22  1  1  0  0  0
  3  5  1  0  0  0  0
  3 23  1  0  0  0  0
  3 24  1  0  0  0  0
  4  9  1  0  0  0  0
  4 10  1  0  0  0  0
  4 11  1  0  0  0  0
  5  7  1  0  0  0  0
  5  8  1  0  0  0  0
  5 25  1  0  0  0  0
  6 27  1  0  0  0  0
  6 28  1  0  0  0  0
  6 29  1  0  0  0  0
  7 12  2  0  0  0  0
  7 14  1  0  0  0  0
  8 13  2  0  0  0  0
  8 15  1  0  0  0  0
  9 30  1  0  0  0  0
  9 31  1  0  0  0  0
  9 32  1  0  0  0  0
 10 33  1  0  0  0  0
 10 34  1  0  0  0  0
 10 35  1  0  0  0  0
 11 36  1  0  0  0  0
 11 37  1  0  0  0  0
 11 38  1  0  0  0  0
 12 16  1  0  0  0  0
 12 39  1  0  0  0  0
 13 17  1  0  0  0  0
 13 40  1  0  0  0  0
 14 18  2  0  0  0  0
 14 41  1  0  0  0  0
 15 19  2  0  0  0  0
 15 42  1  0  0  0  0
 16 20  2  0  0  0  0
 16 43  1  0  0  0  0
 17 21  2  0  0  0  0
 17 44  1  0  0  0  0
 18 20  1  0  0  0  0
 18 45  1  0  0  0  0
 19 21  1  0  0  0  0
 19 46  1  0  0  0  0
 20 47  1  0  0  0  0
 21 48  1  0  0  0  0
M  END
$$$$
Thioridazine
  MOE2018           2D

 51 54  0  0  1  0  0  0  0  0999 V2000
    0.4680    1.8520    0.0000 S   0  0  0  0  0  0  0  0  0  0  0  0
    0.4680   -4.1480    0.0000 S   0  0  0  0  0  0  0  0  0  0  0  0
    8.2630    0.3520    0.0000 N   0  0  2  0  0  0  0  0  0  0  0  0
    3.0660    0.3520    0.0000 N   0  0  0  0  0  0  0  0  0  0  0  0
    6.9640   -0.3980    0.0000 C   0  0  1  0  0  0  0  0  0  0  0  0
    6.9640   -1.8980    0.0000 C   0  0  0  0  0  0  0  0  0  0  0  0
    5.6650    0.3520    0.0000 C   0  0  0  0  0  0  0  0  0  0  0  0
    8.2630   -2.6480    0.0000 C   0  0  0  0  0  0  0  0  0  0  0  0
    9.5620   -0.3980    0.0000 C   0  0  0  0  0  0  0  0  0  0  0  0
    9.5620   -1.8980    0.0000 C   0  0  0  0  0  0  0  0  0  0  0  0
    4.3650   -0.3980    0.0000 C   0  0  0  0  0  0  0  0  0  0  0  0
    8.2630    1.8520    0.0000 C   0  0  0  0  0  0  0  0  0  0  0  0
    1.7670   -0.3980    0.0000 C   0  0  0  0  0  0  0  0  0  0  0  0
    3.0660    1.8520    0.0000 C   0  0  0  0  0  0  0  0  0  0  0  0
    0.4680    0.3520    0.0000 C   0  0  0  0  0  0  0  0  0  0  0  0
    1.7670    2.6020    0.0000 C   0  0  0  0  0  0  0  0  0  0  0  0
    1.7670   -1.8980    0.0000 C   0  0  0  0  0  0  0  0  0  0  0  0
    4.3650    2.6020    0.0000 C   0  0  0  0  0  0  0  0  0  0  0  0
   -0.8310   -0.3980    0.0000 C   0  0  0  0  0  0  0  0  0  0  0  0
    1.7670    4.1020    0.0000 C   0  0  0  0  0  0  0  0  0  0  0  0
    0.4680   -2.6480    0.0000 C   0  0  0  0  0  0  0  0  0  0  0  0
    4.3650    4.1020    0.0000 C   0  0  0  0  0  0  0  0  0  0  0  0
   -0.8310   -1.8980    0.0000 C   0  0  0  0  0  0  0  0  0  0  0  0
    3.0660    4.8520    0.0000 C   0  0  0  0  0  0  0  0  0  0  0  0
   -0.8310   -4.8980    0.0000 C   0  0  0  0  0  0  0  0  0  0  0  0
    6.9640    0.8020    0.0000 H   0  0  0  0  0  0  0  0  0  0  0  0
    6.5530   -3.0260    0.0000 H   0  0  0  0  0  0  0  0  0  0  0  0
    5.7820   -1.6900    0.0000 H   0  0  0  0  0  0  0  0  0  0  0  0
    4.8930    1.2710    0.0000 H   0  0  0  0  0  0  0  0  0  0  0  0
    6.4360    1.2710    0.0000 H   0  0  0  0  0  0  0  0  0  0  0  0
    9.0340   -3.5670    0.0000 H   0  0  0  0  0  0  0  0  0  0  0  0
    7.4910   -3.5670    0.0000 H   0  0  0  0  0  0  0  0  0  0  0  0
   10.7430   -0.6060    0.0000 H   0  0  0  0  0  0  0  0  0  0  0  0
    9.9720    0.7300    0.0000 H   0  0  0  0  0  0  0  0  0  0  0  0
    9.9720   -3.0260    0.0000 H   0  0  0  0  0  0  0  0  0  0  0  0
   10.7430   -1.6900    0.0000 H   0  0  0  0  0  0  0  0  0  0  0  0
    3.5940   -1.3170    0.0000 H   0  0  0  0  0  0  0  0  0  0  0  0
    5.1370   -1.3170    0.0000 H   0  0  0  0  0  0  0  0  0  0  0  0
    9.4630    1.8520    0.0000 H   0  0  0  0  0  0  0  0  0  0  0  0
    8.2630    3.0520    0.0000 H   0  0  0  0  0  0  0  0  0  0  0  0
    7.0630    1.8520    0.0000 H   0  0  0  0  0  0  0  0  0  0  0  0
    2.8070   -2.4980    0.0000 H   0  0  0  0  0  0  0  0  0  0  0  0
    5.4050    2.0020    0.0000 H   0  0  0  0  0  0  0  0  0  0  0  0
   -1.8700    0.2020    0.0000 H   0  0  0  0  0  0  0  0  0  0  0  0
    0.7280    4.7020    0.0000 H   0  0  0  0  0  0  0  0  0  0  0  0
    5.4050    4.7020    0.0000 H   0  0  0  0  0  0  0  0  0  0  0  0
   -1.8700   -2.4980    0.0000 H   0  0  0  0  0  0  0  0  0  0  0  0
    3.0660    6.0520    0.0000 H   0  0  0  0  0  0  0  0  0  0  0  0
   -1.4310   -3.8590    0.0000 H   0  0  0  0  0  0  0  0  0  0  0  0
   -1.8700   -5.4980    0.0000 H   0  0  0  0  0  0  0  0  0  0  0  0
   -0.2310   -5.9370    0.0000 H   0  0  0  0  0  0  0  0  0  0  0  0
  1 15  1  0  0  0  0
  1 16  1  0  0  0  0
  2 21  1  0  0  0  0
  2 25  1  0  0  0  0
  3  5  1  0  0  0  0
  3  9  1  0  0  0  0
  3 12  1  1  0  0  0
  4 11  1  0  0  0  0
  4 13  1  0  0  0  0
  4 14  1  0  0  0  0
  5  6  1  0  0  0  0
  5  7  1  1  0  0  0
  5 26  1  6  0  0  0
  6  8  1  0  0  0  0
  6 27  1  0  0  0  0
  6 28  1  0  0  0  0
  7 11  1  0  0  0  0
  7 29  1  0  0  0  0
  7 30  1  0  0  0  0
  8 10  1  0  0  0  0
  8 31  1  0  0  0  0
  8 32  1  0  0  0  0
  9 10  1  0  0  0  0
  9 33  1  0  0  0  0
  9 34  1  0  0  0  0
 10 35  1  0  0  0  0
 10 36  1  0  0  0  0
 11 37  1  0  0  0  0
 11 38  1  0  0  0  0
 12 39  1  0  0  0  0
 12 40  1  0  0  0  0
 12 41  1  0  0  0  0
 13 15  1  0  0  0  0
 13 17  2  0  0  0  0
 14 16  1  0  0  0  0
 14 18  2  0  0  0  0
 15 19  2  0  0  0  0
 16 20  2  0  0  0  0
 17 21  1  0  0  0  0
 17 42  1  0  0  0  0
 18 22  1  0  0  0  0
 18 43  1  0  0  0  0
 19 23  1  0  0  0  0
 19 44  1  0  0  0  0
 20 24  1  0  0  0  0
 20 45  1  0  0  0  0
 21 23  2  0  0  0  0
 22 24  2  0  0  0  0
 22 46  1  0  0  0  0
 23 47  1  0  0  0  0
 24 48  1  0  0  0  0
 25 49  1  0  0  0  0
 25 50  1  0  0  0  0
 25 51  1  0  0  0  0
M  END
$$$$
Verapamil
  MOE2018           2D

 71 72  0  0  1  0  0  0  0  0999 V2000
   -1.7110   -1.7110    0.0000 O   0  0  0  0  0  0  0  0  0  0  0  0
   -4.3090   -3.2110    0.0000 O   0  0  0  0  0  0  0  0  0  0  0  0
   13.8780   -6.2110    0.0000 O   0  0  0  0  0  0  0  0  0  0  0  0
   13.8780   -9.2110    0.0000 O   0  0  0  0  0  0  0  0  0  0  0  0
    6.0840   -6.2110    0.0000 N   0  0  2  0  0  0  0  0  0  0  0  0
    2.3870   -3.6130    0.0000 N   0  0  0  0  0  0  0  0  0  0  0  0
    0.8870   -6.2110    0.0000 C   0  0  2  0  0  0  0  0  0  0  0  0
    0.1370   -7.5100    0.0000 C   0  0  0  0  0  0  0  0  0  0  0  0
    2.1860   -6.9610    0.0000 C   0  0  0  0  0  0  0  0  0  0  0  0
    3.4850   -6.2110    0.0000 C   0  0  0  0  0  0  0  0  0  0  0  0
   -0.4120   -5.4610    0.0000 C   0  0  0  0  0  0  0  0  0  0  0  0
    4.7840   -6.9610    0.0000 C   0  0  0  0  0  0  0  0  0  0  0  0
   -1.3630   -7.5100    0.0000 C   0  0  0  0  0  0  0  0  0  0  0  0
    0.8870   -8.8090    0.0000 C   0  0  0  0  0  0  0  0  0  0  0  0
    1.6370   -4.9120    0.0000 C   0  0  0  0  0  0  0  0  0  0  0  0
   -0.4120   -3.9610    0.0000 C   0  0  0  0  0  0  0  0  0  0  0  0
   -1.7110   -6.2110    0.0000 C   0  0  0  0  0  0  0  0  0  0  0  0
    7.3830   -6.9610    0.0000 C   0  0  0  0  0  0  0  0  0  0  0  0
   -1.7110   -3.2110    0.0000 C   0  0  0  0  0  0  0  0  0  0  0  0
    6.0840   -4.7110    0.0000 C   0  0  0  0  0  0  0  0  0  0  0  0
   -3.0100   -5.4610    0.0000 C   0  0  0  0  0  0  0  0  0  0  0  0
    8.6820   -6.2110    0.0000 C   0  0  0  0  0  0  0  0  0  0  0  0
   -3.0100   -3.9610    0.0000 C   0  0  0  0  0  0  0  0  0  0  0  0
    9.9810   -6.9610    0.0000 C   0  0  0  0  0  0  0  0  0  0  0  0
   11.2800   -6.2110    0.0000 C   0  0  0  0  0  0  0  0  0  0  0  0
    9.9810   -8.4610    0.0000 C   0  0  0  0  0  0  0  0  0  0  0  0
   12.5790   -6.9610    0.0000 C   0  0  0  0  0  0  0  0  0  0  0  0
   -3.0100   -0.9610    0.0000 C   0  0  0  0  0  0  0  0  0  0  0  0
   11.2800   -9.2110    0.0000 C   0  0  0  0  0  0  0  0  0  0  0  0
   12.5790   -8.4610    0.0000 C   0  0  0  0  0  0  0  0  0  0  0  0
   -5.6080   -3.9610    0.0000 C   0  0  0  0  0  0  0  0  0  0  0  0
   13.8780   -4.7110    0.0000 C   0  0  0  0  0  0  0  0  0  0  0  0
   13.8780  -10.7110    0.0000 C   0  0  0  0  0  0  0  0  0  0  0  0
   -0.4630   -8.5490    0.0000 H   0  0  0  0  0  0  0  0  0  0  0  0
    2.9580   -7.8800    0.0000 H   0  0  0  0  0  0  0  0  0  0  0  0
    1.4150   -7.8800    0.0000 H   0  0  0  0  0  0  0  0  0  0  0  0
    4.2570   -5.2910    0.0000 H   0  0  0  0  0  0  0  0  0  0  0  0
    2.7140   -5.2910    0.0000 H   0  0  0  0  0  0  0  0  0  0  0  0
    5.5560   -7.8800    0.0000 H   0  0  0  0  0  0  0  0  0  0  0  0
    4.0130   -7.8800    0.0000 H   0  0  0  0  0  0  0  0  0  0  0  0
   -1.3630   -6.9100    0.0000 H   0  0  0  0  0  0  0  0  0  0  0  0
   -2.5630   -7.5100    0.0000 H   0  0  0  0  0  0  0  0  0  0  0  0
   -1.3630   -8.7100    0.0000 H   0  0  0  0  0  0  0  0  0  0  0  0
   -0.1520   -9.4090    0.0000 H   0  0  0  0  0  0  0  0  0  0  0  0
    1.4870   -9.8480    0.0000 H   0  0  0  0  0  0  0  0  0  0  0  0
    1.9270   -8.2090    0.0000 H   0  0  0  0  0  0  0  0  0  0  0  0
    0.6280   -3.3610    0.0000 H   0  0  0  0  0  0  0  0  0  0  0  0
   -1.7110   -6.8110    0.0000 H   0  0  0  0  0  0  0  0  0  0  0  0
    8.1540   -7.8800    0.0000 H   0  0  0  0  0  0  0  0  0  0  0  0
    6.6110   -7.8800    0.0000 H   0  0  0  0  0  0  0  0  0  0  0  0
    7.2840   -4.7110    0.0000 H   0  0  0  0  0  0  0  0  0  0  0  0
    6.0840   -3.5110    0.0000 H   0  0  0  0  0  0  0  0  0  0  0  0
    4.8840   -4.7110    0.0000 H   0  0  0  0  0  0  0  0  0  0  0  0
    9.4530   -5.2910    0.0000 H   0  0  0  0  0  0  0  0  0  0  0  0
    7.9100   -5.2910    0.0000 H   0  0  0  0  0  0  0  0  0  0  0  0
   -4.0490   -6.0610    0.0000 H   0  0  0  0  0  0  0  0  0  0  0  0
   11.2800   -5.0110    0.0000 H   0  0  0  0  0  0  0  0  0  0  0  0
    8.9410   -9.0610    0.0000 H   0  0  0  0  0  0  0  0  0  0  0  0
   -2.4100    0.0790    0.0000 H   0  0  0  0  0  0  0  0  0  0  0  0
   -4.0490   -0.3610    0.0000 H   0  0  0  0  0  0  0  0  0  0  0  0
   -3.6100   -2.0000    0.0000 H   0  0  0  0  0  0  0  0  0  0  0  0
   11.2800  -10.4110    0.0000 H   0  0  0  0  0  0  0  0  0  0  0  0
   -6.2080   -2.9210    0.0000 H   0  0  0  0  0  0  0  0  0  0  0  0
   -6.6470   -4.5610    0.0000 H   0  0  0  0  0  0  0  0  0  0  0  0
   -5.0080   -5.0000    0.0000 H   0  0  0  0  0  0  0  0  0  0  0  0
   15.0780   -4.7110    0.0000 H   0  0  0  0  0  0  0  0  0  0  0  0
   13.8780   -3.5110    0.0000 H   0  0  0  0  0  0  0  0  0  0  0  0
   12.6780   -4.7110    0.0000 H   0  0  0  0  0  0  0  0  0  0  0  0
   12.6780  -10.7110    0.0000 H   0  0  0  0  0  0  0  0  0  0  0  0
   13.8780  -11.9110    0.0000 H   0  0  0  0  0  0  0  0  0  0  0  0
   15.0780  -10.7110    0.0000 H   0  0  0  0  0  0  0  0  0  0  0  0
  1 19  1  0  0  0  0
  1 28  1  0  0  0  0
  2 23  1  0  0  0  0
  2 31  1  0  0  0  0
  3 27  1  0  0  0  0
  3 32  1  0  0  0  0
  4 30  1  0  0  0  0
  4 33  1  0  0  0  0
  5 12  1  1  0  0  0
  5 18  1  0  0  0  0
  5 20  1  0  0  0  0
  6 15  3  0  0  0  0
  7  8  1  6  0  0  0
  7  9  1  0  0  0  0
  7 11  1  1  0  0  0
  7 15  1  0  0  0  0
  8 13  1  0  0  0  0
  8 14  1  0  0  0  0
  8 34  1  0  0  0  0
  9 10  1  0  0  0  0
  9 35  1  0  0  0  0
  9 36  1  0  0  0  0
 10 12  1  0  0  0  0
 10 37  1  0  0  0  0
 10 38  1  0  0  0  0
 11 16  2  0  0  0  0
 11 17  1  0  0  0  0
 12 39  1  0  0  0  0
 12 40  1  0  0  0  0
 13 41  1  0  0  0  0
 13 42  1  0  0  0  0
 13 43  1  0  0  0  0
 14 44  1  0  0  0  0
 14 45  1  0  0  0  0
 14 46  1  0  0  0  0
 16 19  1  0  0  0  0
 16 47  1  0  0  0  0
 17 21  2  0  0  0  0
 17 48  1  0  0  0  0
 18 22  1  0  0  0  0
 18 49  1  0  0  0  0
 18 50  1  0  0  0  0
 19 23  2  0  0  0  0
 20 51  1  0  0  0  0
 20 52  1  0  0  0  0
 20 53  1  0  0  0  0
 21 23  1  0  0  0  0
 21 56  1  0  0  0  0
 22 24  1  0  0  0  0
 22 54  1  0  0  0  0
 22 55  1  0  0  0  0
 24 25  2  0  0  0  0
 24 26  1  0  0  0  0
 25 27  1  0  0  0  0
 25 57  1  0  0  0  0
 26 29  2  0  0  0  0
 26 58  1  0  0  0  0
 27 30  2  0  0  0  0
 28 59  1  0  0  0  0
 28 60  1  0  0  0  0
 28 61  1  0  0  0  0
 29 30  1  0  0  0  0
 29 62  1  0  0  0  0
 31 63  1  0  0  0  0
 31 64  1  0  0  0  0
 31 65  1  0  0  0  0
 32 66  1  0  0  0  0
 32 67  1  0  0  0  0
 32 68  1  0  0  0  0
 33 69  1  0  0  0  0
 33 70  1  0  0  0  0
 33 71  1  0  0  0  0
M  END
$$$$
ceftriaxone
  MOE2018           2D

 54 57  0  0  1  0  0  0  0  0999 V2000
    1.8560    1.4240    0.0000 S   0  0  0  0  0  0  0  0  0  0  0  0
    6.3560    1.4240    0.0000 S   0  0  0  0  0  0  0  0  0  0  0  0
   -6.3140   -4.1330    0.0000 S   0  0  0  0  0  0  0  0  0  0  0  0
    0.1680   -3.3730    0.0000 O   0  0  0  0  0  0  0  0  0  0  0  0
    5.6060   -2.4730    0.0000 O   0  0  0  0  0  0  0  0  0  0  0  0
    3.3560   -3.7720    0.0000 O   0  0  0  0  0  0  0  0  0  0  0  0
   -2.3150   -2.7460    0.0000 O   0  0  0  0  0  0  0  0  0  0  0  0
   -3.4790    1.6000    0.0000 O   0  0  0  0  0  0  0  0  0  0  0  0
   10.8560   -1.1740    0.0000 O   0  0  0  0  0  0  0  0  0  0  0  0
   12.3560    1.4240    0.0000 O   0  0  0  0  0  0  0  0  0  0  0  0
    1.8560   -1.1740    0.0000 N   0  0  0  0  0  0  0  0  0  0  0  0
   -1.6420   -0.2370    0.0000 N   0  0  0  0  0  0  0  0  0  0  0  0
    8.6060    2.7230    0.0000 N   0  0  0  0  0  0  0  0  0  0  0  0
   -4.5400    0.5400    0.0000 N   0  0  0  0  0  0  0  0  0  0  0  0
    8.6060    0.1250    0.0000 N   0  0  0  0  0  0  0  0  0  0  0  0
   10.1060    2.7230    0.0000 N   0  0  0  0  0  0  0  0  0  0  0  0
   -6.6940   -1.7350    0.0000 N   0  0  0  0  0  0  0  0  0  0  0  0
   -8.8570   -3.3070    0.0000 N   0  0  0  0  0  0  0  0  0  0  0  0
    1.1060    0.1250    0.0000 C   0  0  1  0  0  0  0  0  0  0  0  0
   -0.1930   -0.6250    0.0000 C   0  0  1  0  0  0  0  0  0  0  0  0
    0.5570   -1.9240    0.0000 C   0  0  0  0  0  0  0  0  0  0  0  0
    3.3560   -1.1740    0.0000 C   0  0  0  0  0  0  0  0  0  0  0  0
    4.1060    0.1250    0.0000 C   0  0  0  0  0  0  0  0  0  0  0  0
    3.3560    1.4240    0.0000 C   0  0  0  0  0  0  0  0  0  0  0  0
    5.6060    0.1250    0.0000 C   0  0  0  0  0  0  0  0  0  0  0  0
    4.1060   -2.4730    0.0000 C   0  0  0  0  0  0  0  0  0  0  0  0
   -2.7030   -1.2980    0.0000 C   0  0  0  0  0  0  0  0  0  0  0  0
   -4.1520   -0.9090    0.0000 C   0  0  0  0  0  0  0  0  0  0  0  0
    7.8560    1.4240    0.0000 C   0  0  0  0  0  0  0  0  0  0  0  0
   -5.2130   -1.9700    0.0000 C   0  0  0  0  0  0  0  0  0  0  0  0
   -4.9780   -3.4520    0.0000 C   0  0  0  0  0  0  0  0  0  0  0  0
    7.8560    4.0220    0.0000 C   0  0  0  0  0  0  0  0  0  0  0  0
   10.1060    0.1250    0.0000 C   0  0  0  0  0  0  0  0  0  0  0  0
   10.8560    1.4240    0.0000 C   0  0  0  0  0  0  0  0  0  0  0  0
   -7.3750   -3.0720    0.0000 C   0  0  0  0  0  0  0  0  0  0  0  0
   -3.8680    3.0490    0.0000 C   0  0  0  0  0  0  0  0  0  0  0  0
    0.2570    0.9730    0.0000 H   0  0  0  0  0  0  0  0  0  0  0  0
   -0.7930   -1.6640    0.0000 H   0  0  0  0  0  0  0  0  0  0  0  0
    3.1470    2.6060    0.0000 H   0  0  0  0  0  0  0  0  0  0  0  0
    4.4830    1.8340    0.0000 H   0  0  0  0  0  0  0  0  0  0  0  0
   -1.9530    0.9220    0.0000 H   0  0  0  0  0  0  0  0  0  0  0  0
    6.7330   -0.2860    0.0000 H   0  0  0  0  0  0  0  0  0  0  0  0
    5.3970   -1.0570    0.0000 H   0  0  0  0  0  0  0  0  0  0  0  0
    6.2060   -3.5120    0.0000 H   0  0  0  0  0  0  0  0  0  0  0  0
   -3.9090   -3.9960    0.0000 H   0  0  0  0  0  0  0  0  0  0  0  0
   10.7060    3.7620    0.0000 H   0  0  0  0  0  0  0  0  0  0  0  0
    8.8950    4.6220    0.0000 H   0  0  0  0  0  0  0  0  0  0  0  0
    7.2560    5.0610    0.0000 H   0  0  0  0  0  0  0  0  0  0  0  0
    6.8160    3.4220    0.0000 H   0  0  0  0  0  0  0  0  0  0  0  0
   -2.7090    3.3600    0.0000 H   0  0  0  0  0  0  0  0  0  0  0  0
   -4.1780    4.2080    0.0000 H   0  0  0  0  0  0  0  0  0  0  0  0
   -5.0270    2.7380    0.0000 H   0  0  0  0  0  0  0  0  0  0  0  0
   -9.6120   -2.3740    0.0000 H   0  0  0  0  0  0  0  0  0  0  0  0
   -9.2870   -4.4270    0.0000 H   0  0  0  0  0  0  0  0  0  0  0  0
  1 19  1  0  0  0  0
  1 24  1  0  0  0  0
  2 25  1  0  0  0  0
  2 29  1  0  0  0  0
  3 31  1  0  0  0  0
  3 35  1  0  0  0  0
  4 21  2  0  0  0  0
  5 26  1  0  0  0  0
  5 44  1  0  0  0  0
  6 26  2  0  0  0  0
  7 27  2  0  0  0  0
  8 14  1  0  0  0  0
  8 36  1  0  0  0  0
  9 33  2  0  0  0  0
 10 34  2  0  0  0  0
 11 19  1  0  0  0  0
 11 21  1  0  0  0  0
 11 22  1  0  0  0  0
 20 12  1  1  0  0  0
 12 27  1  0  0  0  0
 12 41  1  0  0  0  0
 13 16  1  0  0  0  0
 13 29  1  0  0  0  0
 13 32  1  0  0  0  0
 14 28  2  0  0  0  0
 15 29  2  0  0  0  0
 15 33  1  0  0  0  0
 16 34  1  0  0  0  0
 16 46  1  0  0  0  0
 17 30  1  0  0  0  0
 17 35  2  0  0  0  0
 18 35  1  0  0  0  0
 18 53  1  0  0  0  0
 18 54  1  0  0  0  0
 19 20  1  0  0  0  0
 19 37  1  6  0  0  0
 20 21  1  0  0  0  0
 20 38  1  6  0  0  0
 22 23  2  0  0  0  0
 22 26  1  0  0  0  0
 23 24  1  0  0  0  0
 23 25  1  0  0  0  0
 24 39  1  0  0  0  0
 24 40  1  0  0  0  0
 25 42  1  0  0  0  0
 25 43  1  0  0  0  0
 27 28  1  0  0  0  0
 28 30  1  0  0  0  0
 30 31  2  0  0  0  0
 31 45  1  0  0  0  0
 32 47  1  0  0  0  0
 32 48  1  0  0  0  0
 32 49  1  0  0  0  0
 33 34  1  0  0  0  0
 36 50  1  0  0  0  0
 36 51  1  0  0  0  0
 36 52  1  0  0  0  0
M  END
$$$$
cilostazol
  MOE2018           2D

 54 57  0  0  0  0  0  0  0  0999 V2000
    3.9930    0.3610    0.0000 O   0  0  0  0  0  0  0  0  0  0  0  0
   11.7750    3.3930    0.0000 O   0  0  0  0  0  0  0  0  0  0  0  0
   -3.8730    0.4690    0.0000 N   0  0  0  0  0  0  0  0  0  0  0  0
   -4.8810    1.5800    0.0000 N   0  0  0  0  0  0  0  0  0  0  0  0
   -2.6680    2.5760    0.0000 N   0  0  0  0  0  0  0  0  0  0  0  0
   -4.1370    2.8820    0.0000 N   0  0  0  0  0  0  0  0  0  0  0  0
    9.1770    3.3830    0.0000 N   0  0  0  0  0  0  0  0  0  0  0  0
   -4.1790   -0.9990    0.0000 C   0  0  0  0  0  0  0  0  0  0  0  0
   -3.0600   -1.9990    0.0000 C   0  0  0  0  0  0  0  0  0  0  0  0
   -5.6040   -1.4690    0.0000 C   0  0  0  0  0  0  0  0  0  0  0  0
   -3.3660   -3.4670    0.0000 C   0  0  0  0  0  0  0  0  0  0  0  0
   -5.9090   -2.9370    0.0000 C   0  0  0  0  0  0  0  0  0  0  0  0
   -4.7910   -3.9360    0.0000 C   0  0  0  0  0  0  0  0  0  0  0  0
   -2.5050    1.0850    0.0000 C   0  0  0  0  0  0  0  0  0  0  0  0
   -1.2030    0.3400    0.0000 C   0  0  0  0  0  0  0  0  0  0  0  0
    0.0930    1.0950    0.0000 C   0  0  0  0  0  0  0  0  0  0  0  0
    1.3950    0.3510    0.0000 C   0  0  0  0  0  0  0  0  0  0  0  0
    2.6910    1.1060    0.0000 C   0  0  0  0  0  0  0  0  0  0  0  0
    7.8870    1.1270    0.0000 C   0  0  0  0  0  0  0  0  0  0  0  0
    9.1890    0.3830    0.0000 C   0  0  0  0  0  0  0  0  0  0  0  0
    7.8810    2.6270    0.0000 C   0  0  0  0  0  0  0  0  0  0  0  0
   10.4850    1.1380    0.0000 C   0  0  0  0  0  0  0  0  0  0  0  0
    5.2890    1.1170    0.0000 C   0  0  0  0  0  0  0  0  0  0  0  0
    6.5910    0.3720    0.0000 C   0  0  0  0  0  0  0  0  0  0  0  0
   10.4790    2.6380    0.0000 C   0  0  0  0  0  0  0  0  0  0  0  0
    6.5790    3.3720    0.0000 C   0  0  0  0  0  0  0  0  0  0  0  0
    5.2830    2.6170    0.0000 C   0  0  0  0  0  0  0  0  0  0  0  0
   -5.2180   -0.3990    0.0000 H   0  0  0  0  0  0  0  0  0  0  0  0
   -1.9460   -2.4440    0.0000 H   0  0  0  0  0  0  0  0  0  0  0  0
   -2.4280   -0.9780    0.0000 H   0  0  0  0  0  0  0  0  0  0  0  0
   -6.8030   -1.4320    0.0000 H   0  0  0  0  0  0  0  0  0  0  0  0
   -5.7760   -0.2810    0.0000 H   0  0  0  0  0  0  0  0  0  0  0  0
   -3.1940   -4.6550    0.0000 H   0  0  0  0  0  0  0  0  0  0  0  0
   -2.1670   -3.5040    0.0000 H   0  0  0  0  0  0  0  0  0  0  0  0
   -6.5410   -3.9580    0.0000 H   0  0  0  0  0  0  0  0  0  0  0  0
   -7.0240   -2.4920    0.0000 H   0  0  0  0  0  0  0  0  0  0  0  0
   -4.2230   -4.9940    0.0000 H   0  0  0  0  0  0  0  0  0  0  0  0
   -5.7330   -4.6790    0.0000 H   0  0  0  0  0  0  0  0  0  0  0  0
   -0.4280   -0.5760    0.0000 H   0  0  0  0  0  0  0  0  0  0  0  0
   -1.9710   -0.5820    0.0000 H   0  0  0  0  0  0  0  0  0  0  0  0
    0.8600    2.0180    0.0000 H   0  0  0  0  0  0  0  0  0  0  0  0
   -0.6820    2.0110    0.0000 H   0  0  0  0  0  0  0  0  0  0  0  0
    2.1700   -0.5650    0.0000 H   0  0  0  0  0  0  0  0  0  0  0  0
    0.6270   -0.5720    0.0000 H   0  0  0  0  0  0  0  0  0  0  0  0
    3.4580    2.0280    0.0000 H   0  0  0  0  0  0  0  0  0  0  0  0
    1.9160    2.0220    0.0000 H   0  0  0  0  0  0  0  0  0  0  0  0
    9.9640   -0.5330    0.0000 H   0  0  0  0  0  0  0  0  0  0  0  0
    8.4210   -0.5400    0.0000 H   0  0  0  0  0  0  0  0  0  0  0  0
   11.6660    1.3510    0.0000 H   0  0  0  0  0  0  0  0  0  0  0  0
   10.9000    0.0120    0.0000 H   0  0  0  0  0  0  0  0  0  0  0  0
    6.5960   -0.8280    0.0000 H   0  0  0  0  0  0  0  0  0  0  0  0
    9.1720    4.5830    0.0000 H   0  0  0  0  0  0  0  0  0  0  0  0
    6.5740    4.5720    0.0000 H   0  0  0  0  0  0  0  0  0  0  0  0
    4.2410    3.2120    0.0000 H   0  0  0  0  0  0  0  0  0  0  0  0
  1 18  1  0  0  0  0
  1 23  1  0  0  0  0
  2 25  2  0  0  0  0
  3  4  1  0  0  0  0
  3  8  1  0  0  0  0
  3 14  1  0  0  0  0
  4  6  2  0  0  0  0
  5  6  1  0  0  0  0
  5 14  2  0  0  0  0
  7 21  1  0  0  0  0
  7 25  1  0  0  0  0
  7 52  1  0  0  0  0
  8  9  1  0  0  0  0
  8 10  1  0  0  0  0
  8 28  1  0  0  0  0
  9 11  1  0  0  0  0
  9 29  1  0  0  0  0
  9 30  1  0  0  0  0
 10 12  1  0  0  0  0
 10 31  1  0  0  0  0
 10 32  1  0  0  0  0
 11 13  1  0  0  0  0
 11 33  1  0  0  0  0
 11 34  1  0  0  0  0
 12 13  1  0  0  0  0
 12 35  1  0  0  0  0
 12 36  1  0  0  0  0
 13 37  1  0  0  0  0
 13 38  1  0  0  0  0
 14 15  1  0  0  0  0
 15 16  1  0  0  0  0
 15 39  1  0  0  0  0
 15 40  1  0  0  0  0
 16 17  1  0  0  0  0
 16 41  1  0  0  0  0
 16 42  1  0  0  0  0
 17 18  1  0  0  0  0
 17 43  1  0  0  0  0
 17 44  1  0  0  0  0
 18 45  1  0  0  0  0
 18 46  1  0  0  0  0
 19 20  1  0  0  0  0
 19 21  1  0  0  0  0
 19 24  2  0  0  0  0
 20 22  1  0  0  0  0
 20 47  1  0  0  0  0
 20 48  1  0  0  0  0
 21 26  2  0  0  0  0
 22 25  1  0  0  0  0
 22 49  1  0  0  0  0
 22 50  1  0  0  0  0
 23 24  1  0  0  0  0
 23 27  2  0  0  0  0
 24 51  1  0  0  0  0
 26 27  1  0  0  0  0
 26 53  1  0  0  0  0
 27 54  1  0  0  0  0
M  END
$$$$
Clozapine
  MOE2018           2D

 42 45  0  0  0  0  0  0  0  0999 V2000
   -0.1770   -0.4990    0.0000 C   0  0  0  0  0  0  0  0  0  0  0  0
   -0.1250    1.0000    0.0000 C   0  0  0  0  0  0  0  0  0  0  0  0
    1.0800    1.8950    0.0000 C   0  0  0  0  0  0  0  0  0  0  0  0
    2.5300    1.5110    0.0000 N   0  0  0  0  0  0  0  0  0  0  0  0
    0.9620   -1.4750    0.0000 N   0  0  0  0  0  0  0  0  0  0  0  0
    3.1330    0.1380    0.0000 C   0  0  0  0  0  0  0  0  0  0  0  0
    2.4350   -1.1920    0.0000 C   0  0  0  0  0  0  0  0  0  0  0  0
    0.9070    3.3850    0.0000 C   0  0  0  0  0  0  0  0  0  0  0  0
   -0.4690    3.9800    0.0000 C   0  0  0  0  0  0  0  0  0  0  0  0
   -1.6740    3.0860    0.0000 C   0  0  0  0  0  0  0  0  0  0  0  0
   -1.5010    1.5960    0.0000 C   0  0  0  0  0  0  0  0  0  0  0  0
    3.2360   -2.4600    0.0000 C   0  0  0  0  0  0  0  0  0  0  0  0
    4.7350   -2.3990    0.0000 C   0  0  0  0  0  0  0  0  0  0  0  0
    5.4330   -1.0700    0.0000 C   0  0  0  0  0  0  0  0  0  0  0  0
    4.6310    0.1980    0.0000 C   0  0  0  0  0  0  0  0  0  0  0  0
   -1.5510   -1.1020    0.0000 N   0  0  0  0  0  0  0  0  0  0  0  0
   -2.7600   -0.2130    0.0000 C   0  0  0  0  0  0  0  0  0  0  0  0
   -4.1330   -0.8160    0.0000 C   0  0  0  0  0  0  0  0  0  0  0  0
   -4.2980   -2.3070    0.0000 N   0  0  0  0  0  0  0  0  0  0  0  0
   -3.0890   -3.1950    0.0000 C   0  0  0  0  0  0  0  0  0  0  0  0
   -1.7160   -2.5920    0.0000 C   0  0  0  0  0  0  0  0  0  0  0  0
    5.5360   -3.6670    0.0000 Cl  0  0  0  0  0  0  0  0  0  0  0  0
   -5.6710   -2.9100    0.0000 C   0  0  0  0  0  0  0  0  0  0  0  0
    3.3100    2.4230    0.0000 H   0  0  0  0  0  0  0  0  0  0  0  0
    1.8710    4.1000    0.0000 H   0  0  0  0  0  0  0  0  0  0  0  0
   -0.6070    5.1730    0.0000 H   0  0  0  0  0  0  0  0  0  0  0  0
   -2.7750    3.5630    0.0000 H   0  0  0  0  0  0  0  0  0  0  0  0
   -2.4650    0.8810    0.0000 H   0  0  0  0  0  0  0  0  0  0  0  0
    2.6780   -3.5220    0.0000 H   0  0  0  0  0  0  0  0  0  0  0  0
    6.6320   -1.0220    0.0000 H   0  0  0  0  0  0  0  0  0  0  0  0
    5.1890    1.2600    0.0000 H   0  0  0  0  0  0  0  0  0  0  0  0
   -3.4250    0.7850    0.0000 H   0  0  0  0  0  0  0  0  0  0  0  0
   -1.8920    0.6160    0.0000 H   0  0  0  0  0  0  0  0  0  0  0  0
   -5.3310   -0.8930    0.0000 H   0  0  0  0  0  0  0  0  0  0  0  0
   -4.4170    0.3500    0.0000 H   0  0  0  0  0  0  0  0  0  0  0  0
   -2.4230   -4.1940    0.0000 H   0  0  0  0  0  0  0  0  0  0  0  0
   -3.9570   -4.0240    0.0000 H   0  0  0  0  0  0  0  0  0  0  0  0
   -0.5180   -2.5150    0.0000 H   0  0  0  0  0  0  0  0  0  0  0  0
   -1.4310   -3.7580    0.0000 H   0  0  0  0  0  0  0  0  0  0  0  0
   -6.1540   -1.8110    0.0000 H   0  0  0  0  0  0  0  0  0  0  0  0
   -6.7700   -3.3920    0.0000 H   0  0  0  0  0  0  0  0  0  0  0  0
   -5.1890   -4.0090    0.0000 H   0  0  0  0  0  0  0  0  0  0  0  0
  1  2  1  0  0  0  0
  1  5  2  0  0  0  0
  1 16  1  0  0  0  0
  2  3  1  0  0  0  0
  2 11  2  0  0  0  0
  3  4  1  0  0  0  0
  3  8  2  0  0  0  0
  4  6  1  0  0  0  0
  4 24  1  0  0  0  0
  5  7  1  0  0  0  0
  6  7  1  0  0  0  0
  6 15  2  0  0  0  0
  7 12  2  0  0  0  0
  8  9  1  0  0  0  0
  8 25  1  0  0  0  0
  9 10  2  0  0  0  0
  9 26  1  0  0  0  0
 10 11  1  0  0  0  0
 10 27  1  0  0  0  0
 11 28  1  0  0  0  0
 12 13  1  0  0  0  0
 12 29  1  0  0  0  0
 13 14  2  0  0  0  0
 13 22  1  0  0  0  0
 14 15  1  0  0  0  0
 14 30  1  0  0  0  0
 15 31  1  0  0  0  0
 16 17  1  0  0  0  0
 16 21  1  0  0  0  0
 17 18  1  0  0  0  0
 17 32  1  0  0  0  0
 17 33  1  0  0  0  0
 18 19  1  0  0  0  0
 18 34  1  0  0  0  0
 18 35  1  0  0  0  0
 19 20  1  0  0  0  0
 19 23  1  0  0  0  0
 20 21  1  0  0  0  0
 20 36  1  0  0  0  0
 20 37  1  0  0  0  0
 21 38  1  0  0  0  0
 21 39  1  0  0  0  0
 23 40  1  0  0  0  0
 23 41  1  0  0  0  0
 23 42  1  0  0  0  0
M  END
$$$$
diazepam
  MOE2018           2D

 33 35  0  0  0  0  0  0  0  0999 V2000
    4.9910    2.2460    0.0000 Cl  0  0  0  0  0  0  0  0  0  0  0  0
   -0.4460   -4.2650    0.0000 O   0  0  0  0  0  0  0  0  0  0  0  0
    0.8550   -2.0830    0.0000 N   0  0  0  0  0  0  0  0  0  0  0  0
    3.5370   -4.1240    0.0000 N   0  0  0  0  0  0  0  0  0  0  0  0
    3.4760   -1.4220    0.0000 C   0  0  0  0  0  0  0  0  0  0  0  0
    2.0060   -1.1220    0.0000 C   0  0  0  0  0  0  0  0  0  0  0  0
    4.1580   -2.7580    0.0000 C   0  0  0  0  0  0  0  0  0  0  0  0
    2.0840   -4.4910    0.0000 C   0  0  0  0  0  0  0  0  0  0  0  0
    0.8900   -3.5830    0.0000 C   0  0  0  0  0  0  0  0  0  0  0  0
    5.6580   -2.7240    0.0000 C   0  0  0  0  0  0  0  0  0  0  0  0
    4.4710   -0.3000    0.0000 C   0  0  0  0  0  0  0  0  0  0  0  0
    1.5320    0.3010    0.0000 C   0  0  0  0  0  0  0  0  0  0  0  0
   -0.5110   -1.4630    0.0000 C   0  0  0  0  0  0  0  0  0  0  0  0
    3.9960    1.1230    0.0000 C   0  0  0  0  0  0  0  0  0  0  0  0
    2.5270    1.4230    0.0000 C   0  0  0  0  0  0  0  0  0  0  0  0
    6.4370   -4.0060    0.0000 C   0  0  0  0  0  0  0  0  0  0  0  0
    6.3780   -1.4090    0.0000 C   0  0  0  0  0  0  0  0  0  0  0  0
    7.9370   -3.9720    0.0000 C   0  0  0  0  0  0  0  0  0  0  0  0
    7.8780   -1.3750    0.0000 C   0  0  0  0  0  0  0  0  0  0  0  0
    8.6570   -2.6560    0.0000 C   0  0  0  0  0  0  0  0  0  0  0  0
    1.1630   -5.2600    0.0000 H   0  0  0  0  0  0  0  0  0  0  0  0
    2.6290   -5.5600    0.0000 H   0  0  0  0  0  0  0  0  0  0  0  0
    5.0590   -0.4200    0.0000 H   0  0  0  0  0  0  0  0  0  0  0  0
    0.3560    0.5410    0.0000 H   0  0  0  0  0  0  0  0  0  0  0  0
   -0.0160   -0.3710    0.0000 H   0  0  0  0  0  0  0  0  0  0  0  0
   -1.6040   -0.9680    0.0000 H   0  0  0  0  0  0  0  0  0  0  0  0
   -1.0070   -2.5560    0.0000 H   0  0  0  0  0  0  0  0  0  0  0  0
    2.1470    2.5620    0.0000 H   0  0  0  0  0  0  0  0  0  0  0  0
    5.8610   -5.0590    0.0000 H   0  0  0  0  0  0  0  0  0  0  0  0
    6.0660   -0.8960    0.0000 H   0  0  0  0  0  0  0  0  0  0  0  0
    8.5600   -4.9970    0.0000 H   0  0  0  0  0  0  0  0  0  0  0  0
    8.4540   -0.3220    0.0000 H   0  0  0  0  0  0  0  0  0  0  0  0
    9.8570   -2.6290    0.0000 H   0  0  0  0  0  0  0  0  0  0  0  0
  1 14  1  0  0  0  0
  2  9  2  0  0  0  0
  3  6  1  0  0  0  0
  3  9  1  0  0  0  0
  3 13  1  0  0  0  0
  4  7  2  0  0  0  0
  4  8  1  0  0  0  0
  5  6  2  0  0  0  0
  5  7  1  0  0  0  0
  5 11  1  0  0  0  0
  6 12  1  0  0  0  0
  7 10  1  0  0  0  0
  8  9  1  0  0  0  0
  8 21  1  0  0  0  0
  8 22  1  0  0  0  0
 10 16  2  0  0  0  0
 10 17  1  0  0  0  0
 11 14  2  0  0  0  0
 11 23  1  0  0  0  0
 12 15  2  0  0  0  0
 12 24  1  0  0  0  0
 13 25  1  0  0  0  0
 13 26  1  0  0  0  0
 13 27  1  0  0  0  0
 14 15  1  0  0  0  0
 15 28  1  0  0  0  0
 16 18  1  0  0  0  0
 16 29  1  0  0  0  0
 17 19  2  0  0  0  0
 17 30  1  0  0  0  0
 18 20  2  0  0  0  0
 18 31  1  0  0  0  0
 19 20  1  0  0  0  0
 19 32  1  0  0  0  0
 20 33  1  0  0  0  0
M  END
$$$$
Lamivudine
  MOE2018           2D

 26 27  0  0  1  0  0  0  0  0999 V2000
    1.0090    3.1820    0.0000 S   0  0  0  0  0  0  0  0  0  0  0  0
   -0.3900    1.1990    0.0000 O   0  0  0  0  0  0  0  0  0  0  0  0
    3.6180    1.4470    0.0000 O   0  0  0  0  0  0  0  0  0  0  0  0
   -2.8240    4.9770    0.0000 O   0  0  0  0  0  0  0  0  0  0  0  0
   -2.7880    2.3790    0.0000 N   0  0  0  0  0  0  0  0  0  0  0  0
   -5.0560    3.6460    0.0000 N   0  0  0  0  0  0  0  0  0  0  0  0
   -7.2880    2.3160    0.0000 N   0  0  0  0  0  0  0  0  0  0  0  0
   -1.2880    2.4000    0.0000 C   0  0  2  0  0  0  0  0  0  0  0  0
   -0.4240    3.6250    0.0000 C   0  0  0  0  0  0  0  0  0  0  0  0
    1.0300    1.6820    0.0000 C   0  0  1  0  0  0  0  0  0  0  0  0
    2.2560    0.8170    0.0000 C   0  0  0  0  0  0  0  0  0  0  0  0
   -3.5200    1.0690    0.0000 C   0  0  0  0  0  0  0  0  0  0  0  0
   -3.5560    3.6670    0.0000 C   0  0  0  0  0  0  0  0  0  0  0  0
   -5.0200    1.0480    0.0000 C   0  0  0  0  0  0  0  0  0  0  0  0
   -5.7880    2.3370    0.0000 C   0  0  0  0  0  0  0  0  0  0  0  0
   -1.5990    1.2410    0.0000 H   0  0  0  0  0  0  0  0  0  0  0  0
    0.0490    4.7280    0.0000 H   0  0  0  0  0  0  0  0  0  0  0  0
   -1.4710    4.2110    0.0000 H   0  0  0  0  0  0  0  0  0  0  0  0
    1.0300    0.4820    0.0000 H   0  0  0  0  0  0  0  0  0  0  0  0
    2.9410   -0.1680    0.0000 H   0  0  0  0  0  0  0  0  0  0  0  0
    1.4050   -0.0280    0.0000 H   0  0  0  0  0  0  0  0  0  0  0  0
   -2.9050    0.0390    0.0000 H   0  0  0  0  0  0  0  0  0  0  0  0
   -5.6050    0.0010    0.0000 H   0  0  0  0  0  0  0  0  0  0  0  0
    4.5980    0.7550    0.0000 H   0  0  0  0  0  0  0  0  0  0  0  0
   -7.9020    3.3470    0.0000 H   0  0  0  0  0  0  0  0  0  0  0  0
   -7.8730    1.2680    0.0000 H   0  0  0  0  0  0  0  0  0  0  0  0
  1  9  1  0  0  0  0
  1 10  1  0  0  0  0
  2  8  1  0  0  0  0
  2 10  1  0  0  0  0
  3 11  1  0  0  0  0
  3 24  1  0  0  0  0
  4 13  2  0  0  0  0
  8  5  1  6  0  0  0
  5 12  1  0  0  0  0
  5 13  1  0  0  0  0
  6 13  1  0  0  0  0
  6 15  2  0  0  0  0
  7 15  1  0  0  0  0
  7 25  1  0  0  0  0
  7 26  1  0  0  0  0
  8  9  1  0  0  0  0
  8 16  1  1  0  0  0
  9 17  1  0  0  0  0
  9 18  1  0  0  0  0
 10 11  1  6  0  0  0
 10 19  1  1  0  0  0
 11 20  1  0  0  0  0
 11 21  1  0  0  0  0
 12 14  2  0  0  0  0
 12 22  1  0  0  0  0
 14 15  1  0  0  0  0
 14 23  1  0  0  0  0
M  END
$$$$
Linezolid
  MOE2018           2D

 44 46  0  0  1  0  0  0  0  0999 V2000
    0.4090   -0.6870    0.0000 F   0  0  0  0  0  0  0  0  0  0  0  0
    7.1280    2.8360    0.0000 O   0  0  0  0  0  0  0  0  0  0  0  0
   -4.1570    1.7940    0.0000 O   0  0  0  0  0  0  0  0  0  0  0  0
    5.1900    4.6760    0.0000 O   0  0  0  0  0  0  0  0  0  0  0  0
   12.3470    0.9260    0.0000 O   0  0  0  0  0  0  0  0  0  0  0  0
    4.8400    2.0260    0.0000 N   0  0  0  0  0  0  0  0  0  0  0  0
   -1.1580    1.8720    0.0000 N   0  0  0  0  0  0  0  0  0  0  0  0
    9.7570    1.1310    0.0000 N   0  0  0  0  0  0  0  0  0  0  0  0
    7.1670    1.3360    0.0000 C   0  0  2  0  0  0  0  0  0  0  0  0
    5.7530    0.8360    0.0000 C   0  0  0  0  0  0  0  0  0  0  0  0
   -1.9410    3.1510    0.0000 C   0  0  0  0  0  0  0  0  0  0  0  0
   -1.8740    0.5540    0.0000 C   0  0  0  0  0  0  0  0  0  0  0  0
    3.3410    1.9880    0.0000 C   0  0  0  0  0  0  0  0  0  0  0  0
    8.4030    0.4860    0.0000 C   0  0  0  0  0  0  0  0  0  0  0  0
    0.3420    1.9100    0.0000 C   0  0  0  0  0  0  0  0  0  0  0  0
   -3.4410    3.1120    0.0000 C   0  0  0  0  0  0  0  0  0  0  0  0
   -3.3740    0.5150    0.0000 C   0  0  0  0  0  0  0  0  0  0  0  0
    5.6900    3.2620    0.0000 C   0  0  0  0  0  0  0  0  0  0  0  0
    2.6240    0.6700    0.0000 C   0  0  0  0  0  0  0  0  0  0  0  0
    2.5570    3.2670    0.0000 C   0  0  0  0  0  0  0  0  0  0  0  0
    1.1250    0.6310    0.0000 C   0  0  0  0  0  0  0  0  0  0  0  0
    1.0580    3.2280    0.0000 C   0  0  0  0  0  0  0  0  0  0  0  0
   10.9930    0.2810    0.0000 C   0  0  0  0  0  0  0  0  0  0  0  0
   10.8740   -1.2140    0.0000 C   0  0  0  0  0  0  0  0  0  0  0  0
    7.1670    0.1360    0.0000 H   0  0  0  0  0  0  0  0  0  0  0  0
    4.7290    0.2090    0.0000 H   0  0  0  0  0  0  0  0  0  0  0  0
    6.2690   -0.2470    0.0000 H   0  0  0  0  0  0  0  0  0  0  0  0
   -2.1800    4.3270    0.0000 H   0  0  0  0  0  0  0  0  0  0  0  0
   -0.8250    3.5900    0.0000 H   0  0  0  0  0  0  0  0  0  0  0  0
   -2.0520   -0.6330    0.0000 H   0  0  0  0  0  0  0  0  0  0  0  0
   -0.7360    0.1720    0.0000 H   0  0  0  0  0  0  0  0  0  0  0  0
    9.0990   -0.4910    0.0000 H   0  0  0  0  0  0  0  0  0  0  0  0
    7.5610   -0.3700    0.0000 H   0  0  0  0  0  0  0  0  0  0  0  0
   -4.5790    3.4930    0.0000 H   0  0  0  0  0  0  0  0  0  0  0  0
   -3.2630    4.2990    0.0000 H   0  0  0  0  0  0  0  0  0  0  0  0
   -4.4900    0.0760    0.0000 H   0  0  0  0  0  0  0  0  0  0  0  0
   -3.1350   -0.6610    0.0000 H   0  0  0  0  0  0  0  0  0  0  0  0
    3.2510   -0.3540    0.0000 H   0  0  0  0  0  0  0  0  0  0  0  0
    3.1300    4.3210    0.0000 H   0  0  0  0  0  0  0  0  0  0  0  0
    0.4310    4.2520    0.0000 H   0  0  0  0  0  0  0  0  0  0  0  0
    9.8510    2.3270    0.0000 H   0  0  0  0  0  0  0  0  0  0  0  0
    9.6780   -1.1200    0.0000 H   0  0  0  0  0  0  0  0  0  0  0  0
   10.7800   -2.4110    0.0000 H   0  0  0  0  0  0  0  0  0  0  0  0
   12.0710   -1.3090    0.0000 H   0  0  0  0  0  0  0  0  0  0  0  0
  1 21  1  0  0  0  0
  2  9  1  0  0  0  0
  2 18  1  0  0  0  0
  3 16  1  0  0  0  0
  3 17  1  0  0  0  0
  4 18  2  0  0  0  0
  5 23  2  0  0  0  0
  6 10  1  0  0  0  0
  6 13  1  0  0  0  0
  6 18  1  0  0  0  0
  7 11  1  0  0  0  0
  7 12  1  0  0  0  0
  7 15  1  0  0  0  0
  8 14  1  0  0  0  0
  8 23  1  0  0  0  0
  8 41  1  0  0  0  0
  9 10  1  0  0  0  0
  9 14  1  1  0  0  0
  9 25  1  6  0  0  0
 10 26  1  0  0  0  0
 10 27  1  0  0  0  0
 11 16  1  0  0  0  0
 11 28  1  0  0  0  0
 11 29  1  0  0  0  0
 12 17  1  0  0  0  0
 12 30  1  0  0  0  0
 12 31  1  0  0  0  0
 13 19  1  0  0  0  0
 13 20  2  0  0  0  0
 14 32  1  0  0  0  0
 14 33  1  0  0  0  0
 15 21  1  0  0  0  0
 15 22  2  0  0  0  0
 16 34  1  0  0  0  0
 16 35  1  0  0  0  0
 17 36  1  0  0  0  0
 17 37  1  0  0  0  0
 19 21  2  0  0  0  0
 19 38  1  0  0  0  0
 20 22  1  0  0  0  0
 20 39  1  0  0  0  0
 22 40  1  0  0  0  0
 23 24  1  0  0  0  0
 24 42  1  0  0  0  0
 24 43  1  0  0  0  0
 24 44  1  0  0  0  0
M  END
$$$$
Mitoxantrone
  MOE2018           2D

 60 62  0  0  0  0  0  0  0  0999 V2000
    0.0000    3.8970    0.0000 O   0  0  0  0  0  0  0  0  0  0  0  0
    6.0000    3.8970    0.0000 O   0  0  0  0  0  0  0  0  0  0  0  0
    0.0000    6.4950    0.0000 O   0  0  0  0  0  0  0  0  0  0  0  0
    6.0000    6.4950    0.0000 O   0  0  0  0  0  0  0  0  0  0  0  0
   -6.7500   -2.5980    0.0000 O   0  0  0  0  0  0  0  0  0  0  0  0
   12.7500   -2.5980    0.0000 O   0  0  0  0  0  0  0  0  0  0  0  0
    0.0000    1.2990    0.0000 N   0  0  0  0  0  0  0  0  0  0  0  0
    6.0000    1.2990    0.0000 N   0  0  0  0  0  0  0  0  0  0  0  0
   -3.0000   -1.2990    0.0000 N   0  0  0  0  0  0  0  0  0  0  0  0
    9.0000   -1.2990    0.0000 N   0  0  0  0  0  0  0  0  0  0  0  0
    2.2500    2.5980    0.0000 C   0  0  0  0  0  0  0  0  0  0  0  0
    3.7500    2.5980    0.0000 C   0  0  0  0  0  0  0  0  0  0  0  0
    1.5000    1.2990    0.0000 C   0  0  0  0  0  0  0  0  0  0  0  0
    4.5000    1.2990    0.0000 C   0  0  0  0  0  0  0  0  0  0  0  0
    2.2500    5.1960    0.0000 C   0  0  0  0  0  0  0  0  0  0  0  0
    3.7500    5.1960    0.0000 C   0  0  0  0  0  0  0  0  0  0  0  0
    1.5000    3.8970    0.0000 C   0  0  0  0  0  0  0  0  0  0  0  0
    4.5000    3.8970    0.0000 C   0  0  0  0  0  0  0  0  0  0  0  0
    2.2500    0.0000    0.0000 C   0  0  0  0  0  0  0  0  0  0  0  0
    3.7500    0.0000    0.0000 C   0  0  0  0  0  0  0  0  0  0  0  0
   -0.7500    0.0000    0.0000 C   0  0  0  0  0  0  0  0  0  0  0  0
    6.7500    0.0000    0.0000 C   0  0  0  0  0  0  0  0  0  0  0  0
    1.5000    6.4950    0.0000 C   0  0  0  0  0  0  0  0  0  0  0  0
    4.5000    6.4950    0.0000 C   0  0  0  0  0  0  0  0  0  0  0  0
   -2.2500    0.0000    0.0000 C   0  0  0  0  0  0  0  0  0  0  0  0
    8.2500    0.0000    0.0000 C   0  0  0  0  0  0  0  0  0  0  0  0
    2.2500    7.7940    0.0000 C   0  0  0  0  0  0  0  0  0  0  0  0
    3.7500    7.7940    0.0000 C   0  0  0  0  0  0  0  0  0  0  0  0
   -4.5000   -1.2990    0.0000 C   0  0  0  0  0  0  0  0  0  0  0  0
   10.5000   -1.2990    0.0000 C   0  0  0  0  0  0  0  0  0  0  0  0
   -5.2500   -2.5980    0.0000 C   0  0  0  0  0  0  0  0  0  0  0  0
   11.2500   -2.5980    0.0000 C   0  0  0  0  0  0  0  0  0  0  0  0
    1.6500   -1.0390    0.0000 H   0  0  0  0  0  0  0  0  0  0  0  0
    4.3500   -1.0390    0.0000 H   0  0  0  0  0  0  0  0  0  0  0  0
   -0.6000    2.3380    0.0000 H   0  0  0  0  0  0  0  0  0  0  0  0
    6.6000    2.3380    0.0000 H   0  0  0  0  0  0  0  0  0  0  0  0
   -0.9580   -1.1820    0.0000 H   0  0  0  0  0  0  0  0  0  0  0  0
    0.3780   -0.4100    0.0000 H   0  0  0  0  0  0  0  0  0  0  0  0
    6.9580   -1.1820    0.0000 H   0  0  0  0  0  0  0  0  0  0  0  0
    5.6220   -0.4100    0.0000 H   0  0  0  0  0  0  0  0  0  0  0  0
   -3.3780    0.4100    0.0000 H   0  0  0  0  0  0  0  0  0  0  0  0
   -2.0420    1.1820    0.0000 H   0  0  0  0  0  0  0  0  0  0  0  0
    9.3780    0.4100    0.0000 H   0  0  0  0  0  0  0  0  0  0  0  0
    8.0420    1.1820    0.0000 H   0  0  0  0  0  0  0  0  0  0  0  0
    1.6500    8.8330    0.0000 H   0  0  0  0  0  0  0  0  0  0  0  0
    4.3500    8.8330    0.0000 H   0  0  0  0  0  0  0  0  0  0  0  0
   -2.4000   -2.3380    0.0000 H   0  0  0  0  0  0  0  0  0  0  0  0
    8.4000   -2.3380    0.0000 H   0  0  0  0  0  0  0  0  0  0  0  0
   -5.6280   -0.8890    0.0000 H   0  0  0  0  0  0  0  0  0  0  0  0
   -4.2920   -0.1170    0.0000 H   0  0  0  0  0  0  0  0  0  0  0  0
   11.6280   -0.8890    0.0000 H   0  0  0  0  0  0  0  0  0  0  0  0
   10.2920   -0.1170    0.0000 H   0  0  0  0  0  0  0  0  0  0  0  0
   -0.6000    7.5340    0.0000 H   0  0  0  0  0  0  0  0  0  0  0  0
    6.6000    7.5340    0.0000 H   0  0  0  0  0  0  0  0  0  0  0  0
   -5.4580   -3.7800    0.0000 H   0  0  0  0  0  0  0  0  0  0  0  0
   -4.1220   -3.0090    0.0000 H   0  0  0  0  0  0  0  0  0  0  0  0
   11.4580   -3.7800    0.0000 H   0  0  0  0  0  0  0  0  0  0  0  0
   10.1220   -3.0090    0.0000 H   0  0  0  0  0  0  0  0  0  0  0  0
   -7.3500   -3.6370    0.0000 H   0  0  0  0  0  0  0  0  0  0  0  0
   13.3500   -3.6370    0.0000 H   0  0  0  0  0  0  0  0  0  0  0  0
  1 17  2  0  0  0  0
  2 18  2  0  0  0  0
  3 23  1  0  0  0  0
  3 53  1  0  0  0  0
  4 24  1  0  0  0  0
  4 54  1  0  0  0  0
  5 31  1  0  0  0  0
  5 59  1  0  0  0  0
  6 32  1  0  0  0  0
  6 60  1  0  0  0  0
  7 13  1  0  0  0  0
  7 21  1  0  0  0  0
  7 35  1  0  0  0  0
  8 14  1  0  0  0  0
  8 22  1  0  0  0  0
  8 36  1  0  0  0  0
  9 25  1  0  0  0  0
  9 29  1  0  0  0  0
  9 47  1  0  0  0  0
 10 26  1  0  0  0  0
 10 30  1  0  0  0  0
 10 48  1  0  0  0  0
 11 12  2  0  0  0  0
 11 13  1  0  0  0  0
 11 17  1  0  0  0  0
 12 14  1  0  0  0  0
 12 18  1  0  0  0  0
 13 19  2  0  0  0  0
 14 20  2  0  0  0  0
 15 16  2  0  0  0  0
 15 17  1  0  0  0  0
 15 23  1  0  0  0  0
 16 18  1  0  0  0  0
 16 24  1  0  0  0  0
 19 20  1  0  0  0  0
 19 33  1  0  0  0  0
 20 34  1  0  0  0  0
 21 25  1  0  0  0  0
 21 37  1  0  0  0  0
 21 38  1  0  0  0  0
 22 26  1  0  0  0  0
 22 39  1  0  0  0  0
 22 40  1  0  0  0  0
 23 27  2  0  0  0  0
 24 28  2  0  0  0  0
 25 41  1  0  0  0  0
 25 42  1  0  0  0  0
 26 43  1  0  0  0  0
 26 44  1  0  0  0  0
 27 28  1  0  0  0  0
 27 45  1  0  0  0  0
 28 46  1  0  0  0  0
 29 31  1  0  0  0  0
 29 49  1  0  0  0  0
 29 50  1  0  0  0  0
 30 32  1  0  0  0  0
 30 51  1  0  0  0  0
 30 52  1  0  0  0  0
 31 55  1  0  0  0  0
 31 56  1  0  0  0  0
 32 57  1  0  0  0  0
 32 58  1  0  0  0  0
M  END
$$$$
Paliperidone
  MOE2018           2D

 58 62  0  0  1  0  0  0  0  0999 V2000
   18.8020   -7.2180    0.0000 F   0  0  0  0  0  0  0  0  0  0  0  0
   16.8850   -2.2430    0.0000 O   0  0  0  0  0  0  0  0  0  0  0  0
    1.0770   -2.9930    0.0000 O   0  0  0  0  0  0  0  0  0  0  0  0
    6.3270    0.9040    0.0000 O   0  0  0  0  0  0  0  0  0  0  0  0
   10.0770   -2.9930    0.0000 N   0  0  0  0  0  0  0  0  0  0  0  0
    4.0770   -0.3950    0.0000 N   0  0  0  0  0  0  0  0  0  0  0  0
   15.4580   -1.7790    0.0000 N   0  0  0  0  0  0  0  0  0  0  0  0
    4.0770   -2.9930    0.0000 N   0  0  0  0  0  0  0  0  0  0  0  0
   13.0770   -2.9930    0.0000 C   0  0  0  0  0  0  0  0  0  0  0  0
   12.3270   -1.6940    0.0000 C   0  0  0  0  0  0  0  0  0  0  0  0
   12.3270   -4.2920    0.0000 C   0  0  0  0  0  0  0  0  0  0  0  0
   10.8270   -1.6940    0.0000 C   0  0  0  0  0  0  0  0  0  0  0  0
   10.8270   -4.2920    0.0000 C   0  0  0  0  0  0  0  0  0  0  0  0
    8.5770   -2.9930    0.0000 C   0  0  0  0  0  0  0  0  0  0  0  0
   14.5770   -2.9930    0.0000 C   0  0  0  0  0  0  0  0  0  0  0  0
    7.8270   -1.6940    0.0000 C   0  0  0  0  0  0  0  0  0  0  0  0
    6.3270   -1.6940    0.0000 C   0  0  0  0  0  0  0  0  0  0  0  0
    3.3270    0.9040    0.0000 C   0  0  0  0  0  0  0  0  0  0  0  0
    1.8270   -1.6940    0.0000 C   0  0  1  0  0  0  0  0  0  0  0  0
    1.8270    0.9040    0.0000 C   0  0  0  0  0  0  0  0  0  0  0  0
    1.0770   -0.3950    0.0000 C   0  0  0  0  0  0  0  0  0  0  0  0
    3.3270   -1.6940    0.0000 C   0  0  0  0  0  0  0  0  0  0  0  0
   15.4580   -4.2060    0.0000 C   0  0  0  0  0  0  0  0  0  0  0  0
    5.5770   -0.3950    0.0000 C   0  0  0  0  0  0  0  0  0  0  0  0
    5.5770   -2.9930    0.0000 C   0  0  0  0  0  0  0  0  0  0  0  0
   16.8850   -3.7430    0.0000 C   0  0  0  0  0  0  0  0  0  0  0  0
   15.1460   -5.6740    0.0000 C   0  0  0  0  0  0  0  0  0  0  0  0
    6.3270   -4.2920    0.0000 C   0  0  0  0  0  0  0  0  0  0  0  0
   17.9990   -4.7470    0.0000 C   0  0  0  0  0  0  0  0  0  0  0  0
   16.2610   -6.6770    0.0000 C   0  0  0  0  0  0  0  0  0  0  0  0
   17.6880   -6.2140    0.0000 C   0  0  0  0  0  0  0  0  0  0  0  0
   13.6770   -1.9540    0.0000 H   0  0  0  0  0  0  0  0  0  0  0  0
   12.1180   -0.5120    0.0000 H   0  0  0  0  0  0  0  0  0  0  0  0
   13.4540   -1.2830    0.0000 H   0  0  0  0  0  0  0  0  0  0  0  0
   12.1180   -5.4740    0.0000 H   0  0  0  0  0  0  0  0  0  0  0  0
   13.4540   -4.7020    0.0000 H   0  0  0  0  0  0  0  0  0  0  0  0
    9.6990   -1.2830    0.0000 H   0  0  0  0  0  0  0  0  0  0  0  0
   11.0350   -0.5120    0.0000 H   0  0  0  0  0  0  0  0  0  0  0  0
    9.6990   -4.7020    0.0000 H   0  0  0  0  0  0  0  0  0  0  0  0
   11.0350   -5.4740    0.0000 H   0  0  0  0  0  0  0  0  0  0  0  0
    8.0130   -3.1980    0.0000 H   0  0  0  0  0  0  0  0  0  0  0  0
    8.7850   -4.1750    0.0000 H   0  0  0  0  0  0  0  0  0  0  0  0
    7.6180   -0.5120    0.0000 H   0  0  0  0  0  0  0  0  0  0  0  0
    8.9540   -1.2830    0.0000 H   0  0  0  0  0  0  0  0  0  0  0  0
    3.1180    2.0860    0.0000 H   0  0  0  0  0  0  0  0  0  0  0  0
    4.4540    1.3150    0.0000 H   0  0  0  0  0  0  0  0  0  0  0  0
    0.6270   -1.6940    0.0000 H   0  0  0  0  0  0  0  0  0  0  0  0
    0.6990    1.3150    0.0000 H   0  0  0  0  0  0  0  0  0  0  0  0
    2.0350    2.0860    0.0000 H   0  0  0  0  0  0  0  0  0  0  0  0
    0.1570   -1.1660    0.0000 H   0  0  0  0  0  0  0  0  0  0  0  0
    0.1570    0.3760    0.0000 H   0  0  0  0  0  0  0  0  0  0  0  0
   14.0050   -6.0440    0.0000 H   0  0  0  0  0  0  0  0  0  0  0  0
    5.2870   -4.8920    0.0000 H   0  0  0  0  0  0  0  0  0  0  0  0
    6.9270   -5.3310    0.0000 H   0  0  0  0  0  0  0  0  0  0  0  0
    6.8460   -3.9920    0.0000 H   0  0  0  0  0  0  0  0  0  0  0  0
   -0.1230   -2.9930    0.0000 H   0  0  0  0  0  0  0  0  0  0  0  0
   19.1410   -4.3760    0.0000 H   0  0  0  0  0  0  0  0  0  0  0  0
   16.0120   -7.8510    0.0000 H   0  0  0  0  0  0  0  0  0  0  0  0
  1 31  1  0  0  0  0
  2  7  1  0  0  0  0
  2 26  1  0  0  0  0
 19  3  1  1  0  0  0
  3 56  1  0  0  0  0
  4 24  2  0  0  0  0
  5 12  1  0  0  0  0
  5 13  1  0  0  0  0
  5 14  1  0  0  0  0
  6 18  1  0  0  0  0
  6 22  1  0  0  0  0
  6 24  1  0  0  0  0
  7 15  2  0  0  0  0
  8 22  2  0  0  0  0
  8 25  1  0  0  0  0
  9 10  1  0  0  0  0
  9 11  1  0  0  0  0
  9 15  1  0  0  0  0
  9 32  1  0  0  0  0
 10 12  1  0  0  0  0
 10 33  1  0  0  0  0
 10 34  1  0  0  0  0
 11 13  1  0  0  0  0
 11 35  1  0  0  0  0
 11 36  1  0  0  0  0
 12 37  1  0  0  0  0
 12 38  1  0  0  0  0
 13 39  1  0  0  0  0
 13 40  1  0  0  0  0
 14 16  1  0  0  0  0
 14 41  1  0  0  0  0
 14 42  1  0  0  0  0
 15 23  1  0  0  0  0
 16 17  1  0  0  0  0
 16 43  1  0  0  0  0
 16 44  1  0  0  0  0
 17 24  1  0  0  0  0
 17 25  2  0  0  0  0
 18 20  1  0  0  0  0
 18 45  1  0  0  0  0
 18 46  1  0  0  0  0
 19 21  1  0  0  0  0
 19 22  1  0  0  0  0
 19 47  1  6  0  0  0
 20 21  1  0  0  0  0
 20 48  1  0  0  0  0
 20 49  1  0  0  0  0
 21 50  1  0  0  0  0
 21 51  1  0  0  0  0
 23 26  2  0  0  0  0
 23 27  1  0  0  0  0
 25 28  1  0  0  0  0
 26 29  1  0  0  0  0
 27 30  2  0  0  0  0
 27 52  1  0  0  0  0
 28 53  1  0  0  0  0
 28 54  1  0  0  0  0
 28 55  1  0  0  0  0
 29 31  2  0  0  0  0
 29 57  1  0  0  0  0
 30 31  1  0  0  0  0
 30 58  1  0  0  0  0
M  END
$$$$
Phenytoin
  MOE2018           2D

 31 33  0  0  0  0  0  0  0  0999 V2000
    2.8040   -5.1070    0.0000 O   0  0  0  0  0  0  0  0  0  0  0  0
   -2.0770   -3.0940    0.0000 O   0  0  0  0  0  0  0  0  0  0  0  0
    0.3910   -2.0670    0.0000 N   0  0  0  0  0  0  0  0  0  0  0  0
    0.2040   -4.4870    0.0000 N   0  0  0  0  0  0  0  0  0  0  0  0
    1.7770   -2.6390    0.0000 C   0  0  0  0  0  0  0  0  0  0  0  0
    1.9900   -1.1540    0.0000 C   0  0  0  0  0  0  0  0  0  0  0  0
    3.2770   -2.6570    0.0000 C   0  0  0  0  0  0  0  0  0  0  0  0
    1.6620   -4.1350    0.0000 C   0  0  0  0  0  0  0  0  0  0  0  0
   -0.5820   -3.2090    0.0000 C   0  0  0  0  0  0  0  0  0  0  0  0
    0.6680   -0.4460    0.0000 C   0  0  0  0  0  0  0  0  0  0  0  0
    4.0420   -1.3660    0.0000 C   0  0  0  0  0  0  0  0  0  0  0  0
    3.2650   -0.3630    0.0000 C   0  0  0  0  0  0  0  0  0  0  0  0
    4.0120   -3.9640    0.0000 C   0  0  0  0  0  0  0  0  0  0  0  0
    0.6200    1.0530    0.0000 C   0  0  0  0  0  0  0  0  0  0  0  0
    5.5420   -1.3840    0.0000 C   0  0  0  0  0  0  0  0  0  0  0  0
    3.2170    1.1360    0.0000 C   0  0  0  0  0  0  0  0  0  0  0  0
    5.5120   -3.9820    0.0000 C   0  0  0  0  0  0  0  0  0  0  0  0
    1.8950    1.8440    0.0000 C   0  0  0  0  0  0  0  0  0  0  0  0
    6.2770   -2.6920    0.0000 C   0  0  0  0  0  0  0  0  0  0  0  0
    0.1090   -0.9010    0.0000 H   0  0  0  0  0  0  0  0  0  0  0  0
   -0.2540   -5.5960    0.0000 H   0  0  0  0  0  0  0  0  0  0  0  0
   -0.3510   -1.0790    0.0000 H   0  0  0  0  0  0  0  0  0  0  0  0
    3.7480   -0.8430    0.0000 H   0  0  0  0  0  0  0  0  0  0  0  0
    4.3230   -0.9300    0.0000 H   0  0  0  0  0  0  0  0  0  0  0  0
    3.4000   -4.9970    0.0000 H   0  0  0  0  0  0  0  0  0  0  0  0
   -0.4380    1.6190    0.0000 H   0  0  0  0  0  0  0  0  0  0  0  0
    6.1540   -0.3520    0.0000 H   0  0  0  0  0  0  0  0  0  0  0  0
    4.2360    1.7690    0.0000 H   0  0  0  0  0  0  0  0  0  0  0  0
    6.1000   -5.0280    0.0000 H   0  0  0  0  0  0  0  0  0  0  0  0
    1.8560    3.0430    0.0000 H   0  0  0  0  0  0  0  0  0  0  0  0
    7.4770   -2.7060    0.0000 H   0  0  0  0  0  0  0  0  0  0  0  0
  1  8  2  0  0  0  0
  2  9  2  0  0  0  0
  3  5  1  0  0  0  0
  3  9  1  0  0  0  0
  3 20  1  0  0  0  0
  4  8  1  0  0  0  0
  4  9  1  0  0  0  0
  4 21  1  0  0  0  0
  5  6  1  0  0  0  0
  5  7  1  0  0  0  0
  5  8  1  0  0  0  0
  6 10  2  0  0  0  0
  6 12  1  0  0  0  0
  7 11  2  0  0  0  0
  7 13  1  0  0  0  0
 10 14  1  0  0  0  0
 10 22  1  0  0  0  0
 11 15  1  0  0  0  0
 11 23  1  0  0  0  0
 12 16  2  0  0  0  0
 12 24  1  0  0  0  0
 13 17  2  0  0  0  0
 13 25  1  0  0  0  0
 14 18  2  0  0  0  0
 14 26  1  0  0  0  0
 15 19  2  0  0  0  0
 15 27  1  0  0  0  0
 16 18  1  0  0  0  0
 16 28  1  0  0  0  0
 17 19  1  0  0  0  0
 17 29  1  0  0  0  0
 18 30  1  0  0  0  0
 19 31  1  0  0  0  0
M  END
$$$$
Piperacillin
  MOE2018           2D

 63 66  0  0  1  0  0  0  0  0999 V2000
    6.7510   -6.7180    0.0000 S   0  0  0  0  0  0  0  0  0  0  0  0
    6.0460   -1.7640    0.0000 O   0  0  0  0  0  0  0  0  0  0  0  0
   11.0540   -5.1170    0.0000 O   0  0  0  0  0  0  0  0  0  0  0  0
    9.8630   -2.8080    0.0000 O   0  0  0  0  0  0  0  0  0  0  0  0
    3.4850   -1.7390    0.0000 O   0  0  0  0  0  0  0  0  0  0  0  0
   -1.7580   -3.0640    0.0000 O   0  0  0  0  0  0  0  0  0  0  0  0
   -4.0020   -4.3740    0.0000 O   0  0  0  0  0  0  0  0  0  0  0  0
   -5.4890   -6.9790    0.0000 O   0  0  0  0  0  0  0  0  0  0  0  0
    7.1190   -4.3190    0.0000 N   0  0  0  0  0  0  0  0  0  0  0  0
    3.4980   -4.3370    0.0000 N   0  0  0  0  0  0  0  0  0  0  0  0
    0.4980   -4.3520    0.0000 N   0  0  0  0  0  0  0  0  0  0  0  0
   -1.7460   -5.6620    0.0000 N   0  0  0  0  0  0  0  0  0  0  0  0
   -3.2330   -8.2670    0.0000 N   0  0  0  0  0  0  0  0  0  0  0  0
    6.0640   -5.3850    0.0000 C   0  0  1  0  0  0  0  0  0  0  0  0
    8.2320   -6.4760    0.0000 C   0  0  0  0  0  0  0  0  0  0  0  0
    8.4590   -4.9940    0.0000 C   0  0  2  0  0  0  0  0  0  0  0  0
    4.9980   -4.3300    0.0000 C   0  0  1  0  0  0  0  0  0  0  0  0
    6.0530   -3.2640    0.0000 C   0  0  0  0  0  0  0  0  0  0  0  0
    8.5890   -7.9330    0.0000 C   0  0  0  0  0  0  0  0  0  0  0  0
    9.6920   -6.8190    0.0000 C   0  0  0  0  0  0  0  0  0  0  0  0
    9.7920   -4.3060    0.0000 C   0  0  0  0  0  0  0  0  0  0  0  0
    2.7420   -3.0420    0.0000 C   0  0  0  0  0  0  0  0  0  0  0  0
    1.2420   -3.0490    0.0000 C   0  0  1  0  0  0  0  0  0  0  0  0
    0.4850   -1.7540    0.0000 C   0  0  0  0  0  0  0  0  0  0  0  0
   -1.0020   -4.3590    0.0000 C   0  0  0  0  0  0  0  0  0  0  0  0
    1.2290   -0.4510    0.0000 C   0  0  0  0  0  0  0  0  0  0  0  0
   -1.0150   -1.7610    0.0000 C   0  0  0  0  0  0  0  0  0  0  0  0
   -0.9890   -6.9570    0.0000 C   0  0  0  0  0  0  0  0  0  0  0  0
   -1.7330   -8.2600    0.0000 C   0  0  0  0  0  0  0  0  0  0  0  0
   -3.2460   -5.6690    0.0000 C   0  0  0  0  0  0  0  0  0  0  0  0
    0.4730    0.8440    0.0000 C   0  0  0  0  0  0  0  0  0  0  0  0
   -1.7710   -0.4660    0.0000 C   0  0  0  0  0  0  0  0  0  0  0  0
   -3.9890   -6.9720    0.0000 C   0  0  0  0  0  0  0  0  0  0  0  0
   -3.9770   -9.5700    0.0000 C   0  0  0  0  0  0  0  0  0  0  0  0
   -1.0270    0.8370    0.0000 C   0  0  0  0  0  0  0  0  0  0  0  0
   -3.2200  -10.8650    0.0000 C   0  0  0  0  0  0  0  0  0  0  0  0
    5.2150   -6.2340    0.0000 H   0  0  0  0  0  0  0  0  0  0  0  0
    8.4590   -3.7940    0.0000 H   0  0  0  0  0  0  0  0  0  0  0  0
    4.6870   -3.1710    0.0000 H   0  0  0  0  0  0  0  0  0  0  0  0
    7.4230   -8.2190    0.0000 H   0  0  0  0  0  0  0  0  0  0  0  0
    8.8750   -9.0990    0.0000 H   0  0  0  0  0  0  0  0  0  0  0  0
    9.7540   -7.6470    0.0000 H   0  0  0  0  0  0  0  0  0  0  0  0
    9.4170   -7.9880    0.0000 H   0  0  0  0  0  0  0  0  0  0  0  0
   10.8600   -7.0940    0.0000 H   0  0  0  0  0  0  0  0  0  0  0  0
    9.9660   -5.6510    0.0000 H   0  0  0  0  0  0  0  0  0  0  0  0
    2.9030   -5.3790    0.0000 H   0  0  0  0  0  0  0  0  0  0  0  0
    1.8420   -4.0880    0.0000 H   0  0  0  0  0  0  0  0  0  0  0  0
   12.1210   -4.5670    0.0000 H   0  0  0  0  0  0  0  0  0  0  0  0
    1.1030   -5.3880    0.0000 H   0  0  0  0  0  0  0  0  0  0  0  0
    2.4290   -0.4450    0.0000 H   0  0  0  0  0  0  0  0  0  0  0  0
   -1.3120   -2.2820    0.0000 H   0  0  0  0  0  0  0  0  0  0  0  0
   -0.0660   -7.7240    0.0000 H   0  0  0  0  0  0  0  0  0  0  0  0
   -0.0740   -6.1810    0.0000 H   0  0  0  0  0  0  0  0  0  0  0  0
   -1.9360   -9.4430    0.0000 H   0  0  0  0  0  0  0  0  0  0  0  0
   -0.6030   -8.6650    0.0000 H   0  0  0  0  0  0  0  0  0  0  0  0
    1.0670    1.8870    0.0000 H   0  0  0  0  0  0  0  0  0  0  0  0
   -2.9710   -0.4710    0.0000 H   0  0  0  0  0  0  0  0  0  0  0  0
   -4.8920  -10.3460    0.0000 H   0  0  0  0  0  0  0  0  0  0  0  0
   -4.9000   -8.8030    0.0000 H   0  0  0  0  0  0  0  0  0  0  0  0
   -1.6320    1.8730    0.0000 H   0  0  0  0  0  0  0  0  0  0  0  0
   -4.2570  -11.4700    0.0000 H   0  0  0  0  0  0  0  0  0  0  0  0
   -2.6150  -11.9010    0.0000 H   0  0  0  0  0  0  0  0  0  0  0  0
   -2.1840  -10.2600    0.0000 H   0  0  0  0  0  0  0  0  0  0  0  0
  1 14  1  0  0  0  0
  1 15  1  0  0  0  0
  2 18  2  0  0  0  0
  3 21  1  0  0  0  0
  3 48  1  0  0  0  0
  4 21  2  0  0  0  0
  5 22  2  0  0  0  0
  6 25  2  0  0  0  0
  7 30  2  0  0  0  0
  8 33  2  0  0  0  0
  9 14  1  0  0  0  0
  9 16  1  0  0  0  0
  9 18  1  0  0  0  0
 17 10  1  6  0  0  0
 10 22  1  0  0  0  0
 10 46  1  0  0  0  0
 23 11  1  6  0  0  0
 11 25  1  0  0  0  0
 11 49  1  0  0  0  0
 12 25  1  0  0  0  0
 12 28  1  0  0  0  0
 12 30  1  0  0  0  0
 13 29  1  0  0  0  0
 13 33  1  0  0  0  0
 13 34  1  0  0  0  0
 14 17  1  0  0  0  0
 14 37  1  1  0  0  0
 15 16  1  0  0  0  0
 15 19  1  0  0  0  0
 15 20  1  0  0  0  0
 16 21  1  1  0  0  0
 16 38  1  6  0  0  0
 17 18  1  0  0  0  0
 17 39  1  1  0  0  0
 19 40  1  0  0  0  0
 19 41  1  0  0  0  0
 19 42  1  0  0  0  0
 20 43  1  0  0  0  0
 20 44  1  0  0  0  0
 20 45  1  0  0  0  0
 22 23  1  0  0  0  0
 23 24  1  0  0  0  0
 23 47  1  1  0  0  0
 24 26  2  0  0  0  0
 24 27  1  0  0  0  0
 26 31  1  0  0  0  0
 26 50  1  0  0  0  0
 27 32  2  0  0  0  0
 27 51  1  0  0  0  0
 28 29  1  0  0  0  0
 28 52  1  0  0  0  0
 28 53  1  0  0  0  0
 29 54  1  0  0  0  0
 29 55  1  0  0  0  0
 30 33  1  0  0  0  0
 31 35  2  0  0  0  0
 31 56  1  0  0  0  0
 32 35  1  0  0  0  0
 32 57  1  0  0  0  0
 34 36  1  0  0  0  0
 34 58  1  0  0  0  0
 34 59  1  0  0  0  0
 35 60  1  0  0  0  0
 36 61  1  0  0  0  0
 36 62  1  0  0  0  0
 36 63  1  0  0  0  0
M  END
$$$$
Raltegravir
  MOE2018           2D

 53 55  0  0  0  0  0  0  0  0999 V2000
   20.2060   -0.0270    0.0000 F   0  0  0  0  0  0  0  0  0  0  0  0
   13.4670    3.8880    0.0000 O   0  0  0  0  0  0  0  0  0  0  0  0
   11.9730    6.4900    0.0000 O   0  0  0  0  0  0  0  0  0  0  0  0
    5.9600    1.3100    0.0000 O   0  0  0  0  0  0  0  0  0  0  0  0
    2.8280    1.4040    0.0000 O   0  0  0  0  0  0  0  0  0  0  0  0
   11.2060   -0.0030    0.0000 O   0  0  0  0  0  0  0  0  0  0  0  0
    5.9670    3.9080    0.0000 N   0  0  0  0  0  0  0  0  0  0  0  0
    9.7200    5.1970    0.0000 N   0  0  0  0  0  0  0  0  0  0  0  0
    9.7130    2.5990    0.0000 N   0  0  0  0  0  0  0  0  0  0  0  0
   13.4600    1.2900    0.0000 N   0  0  0  0  0  0  0  0  0  0  0  0
    2.8350    3.8310    0.0000 N   0  0  0  0  0  0  0  0  0  0  0  0
    1.4070    3.3710    0.0000 N   0  0  0  0  0  0  0  0  0  0  0  0
    7.4670    3.9040    0.0000 C   0  0  0  0  0  0  0  0  0  0  0  0
    8.9670    3.9000    0.0000 C   0  0  0  0  0  0  0  0  0  0  0  0
    7.4710    5.4040    0.0000 C   0  0  0  0  0  0  0  0  0  0  0  0
    7.4630    2.4040    0.0000 C   0  0  0  0  0  0  0  0  0  0  0  0
   11.2200    5.1930    0.0000 C   0  0  0  0  0  0  0  0  0  0  0  0
   11.2130    2.5950    0.0000 C   0  0  0  0  0  0  0  0  0  0  0  0
    8.9730    6.4980    0.0000 C   0  0  0  0  0  0  0  0  0  0  0  0
   11.9670    3.8920    0.0000 C   0  0  0  0  0  0  0  0  0  0  0  0
    5.2130    2.6110    0.0000 C   0  0  0  0  0  0  0  0  0  0  0  0
   11.9600    1.2940    0.0000 C   0  0  0  0  0  0  0  0  0  0  0  0
    3.7130    2.6150    0.0000 C   0  0  0  0  0  0  0  0  0  0  0  0
   14.2060   -0.0110    0.0000 C   0  0  0  0  0  0  0  0  0  0  0  0
   15.7060   -0.0150    0.0000 C   0  0  0  0  0  0  0  0  0  0  0  0
   16.4600    1.2820    0.0000 C   0  0  0  0  0  0  0  0  0  0  0  0
   16.4530   -1.3160    0.0000 C   0  0  0  0  0  0  0  0  0  0  0  0
    1.4030    1.8710    0.0000 C   0  0  0  0  0  0  0  0  0  0  0  0
   17.9600    1.2780    0.0000 C   0  0  0  0  0  0  0  0  0  0  0  0
   17.9530   -1.3200    0.0000 C   0  0  0  0  0  0  0  0  0  0  0  0
   18.7060   -0.0230    0.0000 C   0  0  0  0  0  0  0  0  0  0  0  0
    0.1870    0.9930    0.0000 C   0  0  0  0  0  0  0  0  0  0  0  0
    6.2630    2.4070    0.0000 H   0  0  0  0  0  0  0  0  0  0  0  0
    7.4590    1.2040    0.0000 H   0  0  0  0  0  0  0  0  0  0  0  0
    8.6630    2.4010    0.0000 H   0  0  0  0  0  0  0  0  0  0  0  0
    8.6710    5.4010    0.0000 H   0  0  0  0  0  0  0  0  0  0  0  0
    7.4740    6.6040    0.0000 H   0  0  0  0  0  0  0  0  0  0  0  0
    6.2710    5.4070    0.0000 H   0  0  0  0  0  0  0  0  0  0  0  0
    5.3690    4.9490    0.0000 H   0  0  0  0  0  0  0  0  0  0  0  0
   10.0140    7.0950    0.0000 H   0  0  0  0  0  0  0  0  0  0  0  0
    8.3760    7.5390    0.0000 H   0  0  0  0  0  0  0  0  0  0  0  0
    7.9330    5.9010    0.0000 H   0  0  0  0  0  0  0  0  0  0  0  0
   14.0620    2.3280    0.0000 H   0  0  0  0  0  0  0  0  0  0  0  0
   14.4120   -1.1930    0.0000 H   0  0  0  0  0  0  0  0  0  0  0  0
   13.0780   -0.4180    0.0000 H   0  0  0  0  0  0  0  0  0  0  0  0
   14.0690    4.9260    0.0000 H   0  0  0  0  0  0  0  0  0  0  0  0
   15.8620    2.3230    0.0000 H   0  0  0  0  0  0  0  0  0  0  0  0
   15.8500   -2.3530    0.0000 H   0  0  0  0  0  0  0  0  0  0  0  0
   18.5620    2.3160    0.0000 H   0  0  0  0  0  0  0  0  0  0  0  0
   18.5500   -2.3610    0.0000 H   0  0  0  0  0  0  0  0  0  0  0  0
   -0.5160    1.9650    0.0000 H   0  0  0  0  0  0  0  0  0  0  0  0
   -0.7860    0.2900    0.0000 H   0  0  0  0  0  0  0  0  0  0  0  0
    0.8900    0.0200    0.0000 H   0  0  0  0  0  0  0  0  0  0  0  0
  1 31  1  0  0  0  0
  2 20  1  0  0  0  0
  2 46  1  0  0  0  0
  3 17  2  0  0  0  0
  4 21  2  0  0  0  0
  5 23  1  0  0  0  0
  5 28  1  0  0  0  0
  6 22  2  0  0  0  0
  7 13  1  0  0  0  0
  7 21  1  0  0  0  0
  7 39  1  0  0  0  0
  8 14  1  0  0  0  0
  8 17  1  0  0  0  0
  8 19  1  0  0  0  0
  9 14  2  0  0  0  0
  9 18  1  0  0  0  0
 10 22  1  0  0  0  0
 10 24  1  0  0  0  0
 10 43  1  0  0  0  0
 11 12  1  0  0  0  0
 11 23  2  0  0  0  0
 12 28  2  0  0  0  0
 13 14  1  0  0  0  0
 13 15  1  0  0  0  0
 13 16  1  0  0  0  0
 15 36  1  0  0  0  0
 15 37  1  0  0  0  0
 15 38  1  0  0  0  0
 16 33  1  0  0  0  0
 16 34  1  0  0  0  0
 16 35  1  0  0  0  0
 17 20  1  0  0  0  0
 18 20  2  0  0  0  0
 18 22  1  0  0  0  0
 19 40  1  0  0  0  0
 19 41  1  0  0  0  0
 19 42  1  0  0  0  0
 21 23  1  0  0  0  0
 24 25  1  0  0  0  0
 24 44  1  0  0  0  0
 24 45  1  0  0  0  0
 25 26  2  0  0  0  0
 25 27  1  0  0  0  0
 26 29  1  0  0  0  0
 26 47  1  0  0  0  0
 27 30  2  0  0  0  0
 27 48  1  0  0  0  0
 28 32  1  0  0  0  0
 29 31  2  0  0  0  0
 29 49  1  0  0  0  0
 30 31  1  0  0  0  0
 30 50  1  0  0  0  0
 32 51  1  0  0  0  0
 32 52  1  0  0  0  0
 32 53  1  0  0  0  0
M  END
$$$$
Ribavirin
  MOE2018           2D

 29 30  0  0  1  0  0  0  0  0999 V2000
    0.0650    0.1160    0.0000 O   0  0  0  0  0  0  0  0  0  0  0  0
    0.2500   -3.7610    0.0000 O   0  0  0  0  0  0  0  0  0  0  0  0
   -2.7730   -2.5310    0.0000 O   0  0  0  0  0  0  0  0  0  0  0  0
   -2.2740    2.2000    0.0000 O   0  0  0  0  0  0  0  0  0  0  0  0
    7.3060   -0.6000    0.0000 O   0  0  0  0  0  0  0  0  0  0  0  0
    2.3530   -1.2660    0.0000 N   0  0  0  0  0  0  0  0  0  0  0  0
    3.3200   -0.1190    0.0000 N   0  0  0  0  0  0  0  0  0  0  0  0
    4.6010   -2.1800    0.0000 N   0  0  0  0  0  0  0  0  0  0  0  0
    5.9350    1.6070    0.0000 N   0  0  0  0  0  0  0  0  0  0  0  0
   -1.4990   -1.7390    0.0000 C   0  0  1  0  0  0  0  0  0  0  0  0
   -0.1100   -2.3040    0.0000 C   0  0  2  0  0  0  0  0  0  0  0  0
   -1.3910   -0.2430    0.0000 C   0  0  1  0  0  0  0  0  0  0  0  0
    0.8570   -1.1580    0.0000 C   0  0  1  0  0  0  0  0  0  0  0  0
   -2.5380    0.7240    0.0000 C   0  0  0  0  0  0  0  0  0  0  0  0
    3.1450   -2.5400    0.0000 C   0  0  0  0  0  0  0  0  0  0  0  0
    4.7100   -0.6840    0.0000 C   0  0  0  0  0  0  0  0  0  0  0  0
    5.9830    0.1080    0.0000 C   0  0  0  0  0  0  0  0  0  0  0  0
    1.0490   -2.6150    0.0000 H   0  0  0  0  0  0  0  0  0  0  0  0
   -1.4990   -2.9390    0.0000 H   0  0  0  0  0  0  0  0  0  0  0  0
   -1.0800    0.9160    0.0000 H   0  0  0  0  0  0  0  0  0  0  0  0
    1.4570   -0.1180    0.0000 H   0  0  0  0  0  0  0  0  0  0  0  0
   -3.6650    1.1370    0.0000 H   0  0  0  0  0  0  0  0  0  0  0  0
   -3.1400   -0.3140    0.0000 H   0  0  0  0  0  0  0  0  0  0  0  0
   -0.6150   -4.5920    0.0000 H   0  0  0  0  0  0  0  0  0  0  0  0
   -3.8310   -1.9650    0.0000 H   0  0  0  0  0  0  0  0  0  0  0  0
    2.6930   -3.6510    0.0000 H   0  0  0  0  0  0  0  0  0  0  0  0
   -3.1910    2.9740    0.0000 H   0  0  0  0  0  0  0  0  0  0  0  0
    6.9540    2.2400    0.0000 H   0  0  0  0  0  0  0  0  0  0  0  0
    4.8760    2.1730    0.0000 H   0  0  0  0  0  0  0  0  0  0  0  0
  1 12  1  0  0  0  0
  1 13  1  0  0  0  0
 11  2  1  6  0  0  0
  2 24  1  0  0  0  0
 10  3  1  6  0  0  0
  3 25  1  0  0  0  0
  4 14  1  0  0  0  0
  4 27  1  0  0  0  0
  5 17  2  0  0  0  0
  6  7  1  0  0  0  0
 13  6  1  1  0  0  0
  6 15  1  0  0  0  0
  7 16  2  0  0  0  0
  8 15  2  0  0  0  0
  8 16  1  0  0  0  0
  9 17  1  0  0  0  0
  9 28  1  0  0  0  0
  9 29  1  0  0  0  0
 10 11  1  0  0  0  0
 10 12  1  0  0  0  0
 10 19  1  1  0  0  0
 11 13  1  0  0  0  0
 11 18  1  1  0  0  0
 12 14  1  1  0  0  0
 12 20  1  6  0  0  0
 13 21  1  6  0  0  0
 14 22  1  0  0  0  0
 14 23  1  0  0  0  0
 15 26  1  0  0  0  0
 16 17  1  0  0  0  0
M  END
$$$$
Saquinavir
  MOE2018           2D

 99103  0  0  1  0  0  0  0  0999 V2000
   -0.5400   -2.0140    0.0000 N   0  0  1  0  0  0  0  0  0  0  0  0
   -1.8390   -1.2640    0.0000 C   0  0  1  0  0  0  0  0  0  0  0  0
   -0.5400   -3.5140    0.0000 C   0  0  0  0  0  0  0  0  0  0  0  0
    0.7590   -1.2640    0.0000 C   0  0  0  0  0  0  0  0  0  0  0  0
   -3.1380   -2.0140    0.0000 C   0  0  0  0  0  0  0  0  0  0  0  0
   -1.8390    0.2360    0.0000 C   0  0  0  0  0  0  0  0  0  0  0  0
   -1.8390   -4.2640    0.0000 C   0  0  2  0  0  0  0  0  0  0  0  0
    2.0580   -2.0140    0.0000 C   0  0  2  0  0  0  0  0  0  0  0  0
   -3.1380   -3.5140    0.0000 C   0  0  1  0  0  0  0  0  0  0  0  0
   -3.1380    0.9860    0.0000 N   0  0  0  0  0  0  0  0  0  0  0  0
   -0.5400    0.9860    0.0000 O   0  0  0  0  0  0  0  0  0  0  0  0
   -1.8390   -5.7640    0.0000 C   0  0  0  0  0  0  0  0  0  0  0  0
    3.3580   -1.2640    0.0000 C   0  0  2  0  0  0  0  0  0  0  0  0
    2.0580   -3.5140    0.0000 O   0  0  0  0  0  0  0  0  0  0  0  0
   -4.4370   -4.2640    0.0000 C   0  0  0  0  0  0  0  0  0  0  0  0
   -3.1380   -6.5140    0.0000 C   0  0  0  0  0  0  0  0  0  0  0  0
    3.3580    0.2360    0.0000 C   0  0  0  0  0  0  0  0  0  0  0  0
    4.6570   -2.0140    0.0000 N   0  0  0  0  0  0  0  0  0  0  0  0
   -4.4370   -5.7640    0.0000 C   0  0  0  0  0  0  0  0  0  0  0  0
    4.6570    0.9860    0.0000 C   0  0  0  0  0  0  0  0  0  0  0  0
    4.6570   -3.5140    0.0000 C   0  0  0  0  0  0  0  0  0  0  0  0
    5.9560   -4.2640    0.0000 C   0  0  1  0  0  0  0  0  0  0  0  0
    3.3580   -4.2640    0.0000 O   0  0  0  0  0  0  0  0  0  0  0  0
    7.2550   -3.5140    0.0000 N   0  0  0  0  0  0  0  0  0  0  0  0
    5.9560   -5.7640    0.0000 C   0  0  0  0  0  0  0  0  0  0  0  0
    8.5540   -4.2640    0.0000 C   0  0  0  0  0  0  0  0  0  0  0  0
    4.6570   -6.5140    0.0000 C   0  0  0  0  0  0  0  0  0  0  0  0
    9.8530   -3.5140    0.0000 C   0  0  0  0  0  0  0  0  0  0  0  0
    8.5540   -5.7640    0.0000 O   0  0  0  0  0  0  0  0  0  0  0  0
    3.3580   -5.7640    0.0000 N   0  0  0  0  0  0  0  0  0  0  0  0
    4.6570   -8.0140    0.0000 O   0  0  0  0  0  0  0  0  0  0  0  0
   11.1520   -4.2640    0.0000 N   0  0  0  0  0  0  0  0  0  0  0  0
    9.8530   -2.0140    0.0000 C   0  0  0  0  0  0  0  0  0  0  0  0
   12.4510   -3.5140    0.0000 C   0  0  0  0  0  0  0  0  0  0  0  0
   11.1520   -1.2640    0.0000 C   0  0  0  0  0  0  0  0  0  0  0  0
   12.4510   -2.0140    0.0000 C   0  0  0  0  0  0  0  0  0  0  0  0
   13.7500   -4.2640    0.0000 C   0  0  0  0  0  0  0  0  0  0  0  0
   13.7500   -1.2640    0.0000 C   0  0  0  0  0  0  0  0  0  0  0  0
   15.0490   -3.5140    0.0000 C   0  0  0  0  0  0  0  0  0  0  0  0
   15.0490   -2.0140    0.0000 C   0  0  0  0  0  0  0  0  0  0  0  0
    5.9560    3.2360    0.0000 C   0  0  0  0  0  0  0  0  0  0  0  0
    4.6570    2.4860    0.0000 C   0  0  0  0  0  0  0  0  0  0  0  0
    5.9560    0.2360    0.0000 C   0  0  0  0  0  0  0  0  0  0  0  0
    7.2550    0.9860    0.0000 C   0  0  0  0  0  0  0  0  0  0  0  0
    7.2550    2.4860    0.0000 C   0  0  0  0  0  0  0  0  0  0  0  0
   -3.1380    2.4860    0.0000 C   0  0  0  0  0  0  0  0  0  0  0  0
   -4.6380    2.4860    0.0000 C   0  0  0  0  0  0  0  0  0  0  0  0
   -3.1380    3.9860    0.0000 C   0  0  0  0  0  0  0  0  0  0  0  0
   -1.6380    2.4860    0.0000 C   0  0  0  0  0  0  0  0  0  0  0  0
   -2.8780   -0.6640    0.0000 H   0  0  0  0  0  0  0  0  0  0  0  0
   -0.1290   -4.6410    0.0000 H   0  0  0  0  0  0  0  0  0  0  0  0
    0.6420   -3.3050    0.0000 H   0  0  0  0  0  0  0  0  0  0  0  0
    1.5310   -0.3440    0.0000 H   0  0  0  0  0  0  0  0  0  0  0  0
   -0.0120   -0.3440    0.0000 H   0  0  0  0  0  0  0  0  0  0  0  0
   -4.3190   -2.2220    0.0000 H   0  0  0  0  0  0  0  0  0  0  0  0
   -3.5480   -0.8860    0.0000 H   0  0  0  0  0  0  0  0  0  0  0  0
   -0.7990   -4.8640    0.0000 H   0  0  0  0  0  0  0  0  0  0  0  0
    2.0580   -0.8140    0.0000 H   0  0  0  0  0  0  0  0  0  0  0  0
   -4.1770   -2.9140    0.0000 H   0  0  0  0  0  0  0  0  0  0  0  0
   -4.1770    0.3860    0.0000 H   0  0  0  0  0  0  0  0  0  0  0  0
   -1.4280   -6.8910    0.0000 H   0  0  0  0  0  0  0  0  0  0  0  0
   -0.6570   -5.5550    0.0000 H   0  0  0  0  0  0  0  0  0  0  0  0
    4.3970   -0.6640    0.0000 H   0  0  0  0  0  0  0  0  0  0  0  0
    1.0190   -4.1140    0.0000 H   0  0  0  0  0  0  0  0  0  0  0  0
   -5.6180   -4.4720    0.0000 H   0  0  0  0  0  0  0  0  0  0  0  0
   -4.8470   -3.1360    0.0000 H   0  0  0  0  0  0  0  0  0  0  0  0
   -3.9090   -7.4330    0.0000 H   0  0  0  0  0  0  0  0  0  0  0  0
   -2.3660   -7.4330    0.0000 H   0  0  0  0  0  0  0  0  0  0  0  0
    2.9470    1.3640    0.0000 H   0  0  0  0  0  0  0  0  0  0  0  0
    2.1760    0.0280    0.0000 H   0  0  0  0  0  0  0  0  0  0  0  0
    5.6960   -1.4140    0.0000 H   0  0  0  0  0  0  0  0  0  0  0  0
   -5.6180   -5.5550    0.0000 H   0  0  0  0  0  0  0  0  0  0  0  0
   -4.8470   -6.8910    0.0000 H   0  0  0  0  0  0  0  0  0  0  0  0
    6.9950   -4.8640    0.0000 H   0  0  0  0  0  0  0  0  0  0  0  0
    7.2550   -2.3140    0.0000 H   0  0  0  0  0  0  0  0  0  0  0  0
    6.3660   -6.8910    0.0000 H   0  0  0  0  0  0  0  0  0  0  0  0
    7.1370   -5.5550    0.0000 H   0  0  0  0  0  0  0  0  0  0  0  0
    3.3580   -5.1640    0.0000 H   0  0  0  0  0  0  0  0  0  0  0  0
    2.3180   -6.3640    0.0000 H   0  0  0  0  0  0  0  0  0  0  0  0
    8.8130   -1.4140    0.0000 H   0  0  0  0  0  0  0  0  0  0  0  0
   11.1520   -0.0640    0.0000 H   0  0  0  0  0  0  0  0  0  0  0  0
   13.7500   -5.4640    0.0000 H   0  0  0  0  0  0  0  0  0  0  0  0
   13.7500   -0.0640    0.0000 H   0  0  0  0  0  0  0  0  0  0  0  0
   16.0880   -4.1140    0.0000 H   0  0  0  0  0  0  0  0  0  0  0  0
   16.0880   -1.4140    0.0000 H   0  0  0  0  0  0  0  0  0  0  0  0
    5.9560    4.4360    0.0000 H   0  0  0  0  0  0  0  0  0  0  0  0
    3.6170    3.0860    0.0000 H   0  0  0  0  0  0  0  0  0  0  0  0
    5.9560   -0.9640    0.0000 H   0  0  0  0  0  0  0  0  0  0  0  0
    8.2940    0.3860    0.0000 H   0  0  0  0  0  0  0  0  0  0  0  0
    8.2940    3.0860    0.0000 H   0  0  0  0  0  0  0  0  0  0  0  0
   -4.6380    3.0860    0.0000 H   0  0  0  0  0  0  0  0  0  0  0  0
   -5.8380    2.4860    0.0000 H   0  0  0  0  0  0  0  0  0  0  0  0
   -4.6380    1.2860    0.0000 H   0  0  0  0  0  0  0  0  0  0  0  0
   -2.5380    3.9860    0.0000 H   0  0  0  0  0  0  0  0  0  0  0  0
   -3.1380    5.1860    0.0000 H   0  0  0  0  0  0  0  0  0  0  0  0
   -3.7380    3.9860    0.0000 H   0  0  0  0  0  0  0  0  0  0  0  0
   -1.6380    1.2860    0.0000 H   0  0  0  0  0  0  0  0  0  0  0  0
   -0.4380    2.4860    0.0000 H   0  0  0  0  0  0  0  0  0  0  0  0
   -1.6380    3.0860    0.0000 H   0  0  0  0  0  0  0  0  0  0  0  0
  1  2  1  0  0  0  0
  1  3  1  0  0  0  0
  1  4  1  6  0  0  0
  2  5  1  0  0  0  0
  2  6  1  1  0  0  0
  2 50  1  6  0  0  0
  3  7  1  0  0  0  0
  3 51  1  0  0  0  0
  3 52  1  0  0  0  0
  8  4  1  6  0  0  0
  4 53  1  0  0  0  0
  4 54  1  0  0  0  0
  5  9  1  0  0  0  0
  5 55  1  0  0  0  0
  5 56  1  0  0  0  0
  6 10  1  0  0  0  0
  6 11  2  0  0  0  0
  7  9  1  0  0  0  0
  7 12  1  0  0  0  0
  7 57  1  6  0  0  0
  8 13  1  0  0  0  0
  8 14  1  0  0  0  0
  8 58  1  1  0  0  0
  9 15  1  0  0  0  0
  9 59  1  6  0  0  0
 10 46  1  0  0  0  0
 10 60  1  0  0  0  0
 12 16  1  0  0  0  0
 12 61  1  0  0  0  0
 12 62  1  0  0  0  0
 13 17  1  0  0  0  0
 13 18  1  6  0  0  0
 13 63  1  1  0  0  0
 14 64  1  0  0  0  0
 15 19  1  0  0  0  0
 15 65  1  0  0  0  0
 15 66  1  0  0  0  0
 16 19  1  0  0  0  0
 16 67  1  0  0  0  0
 16 68  1  0  0  0  0
 17 20  1  0  0  0  0
 17 69  1  0  0  0  0
 17 70  1  0  0  0  0
 18 21  1  0  0  0  0
 18 71  1  0  0  0  0
 19 72  1  0  0  0  0
 19 73  1  0  0  0  0
 20 42  2  0  0  0  0
 20 43  1  0  0  0  0
 21 22  1  0  0  0  0
 21 23  2  0  0  0  0
 22 24  1  0  0  0  0
 22 25  1  1  0  0  0
 22 74  1  6  0  0  0
 24 26  1  0  0  0  0
 24 75  1  0  0  0  0
 25 27  1  0  0  0  0
 25 76  1  0  0  0  0
 25 77  1  0  0  0  0
 26 28  1  0  0  0  0
 26 29  2  0  0  0  0
 27 30  1  0  0  0  0
 27 31  2  0  0  0  0
 28 32  2  0  0  0  0
 28 33  1  0  0  0  0
 30 78  1  0  0  0  0
 30 79  1  0  0  0  0
 32 34  1  0  0  0  0
 33 35  2  0  0  0  0
 33 80  1  0  0  0  0
 34 36  1  0  0  0  0
 34 37  2  0  0  0  0
 35 36  1  0  0  0  0
 35 81  1  0  0  0  0
 36 38  2  0  0  0  0
 37 39  1  0  0  0  0
 37 82  1  0  0  0  0
 38 40  1  0  0  0  0
 38 83  1  0  0  0  0
 39 40  2  0  0  0  0
 39 84  1  0  0  0  0
 40 85  1  0  0  0  0
 41 42  1  0  0  0  0
 41 45  2  0  0  0  0
 41 86  1  0  0  0  0
 42 87  1  0  0  0  0
 43 44  2  0  0  0  0
 43 88  1  0  0  0  0
 44 45  1  0  0  0  0
 44 89  1  0  0  0  0
 45 90  1  0  0  0  0
 46 47  1  0  0  0  0
 46 48  1  0  0  0  0
 46 49  1  0  0  0  0
 47 91  1  0  0  0  0
 47 92  1  0  0  0  0
 47 93  1  0  0  0  0
 48 94  1  0  0  0  0
 48 95  1  0  0  0  0
 48 96  1  0  0  0  0
 49 97  1  0  0  0  0
 49 98  1  0  0  0  0
 49 99  1  0  0  0  0
M  END
$$$$
Sunitinib
  MOE2018           2D

 56 58  0  0  0  0  0  0  0  0999 V2000
   -2.0910   -4.6190    0.0000 F   0  0  0  0  0  0  0  0  0  0  0  0
    8.9530   -2.8630    0.0000 O   0  0  0  0  0  0  0  0  0  0  0  0
    4.7260   -8.5120    0.0000 O   0  0  0  0  0  0  0  0  0  0  0  0
   14.1300   -4.4280    0.0000 N   0  0  0  0  0  0  0  0  0  0  0  0
    5.9790   -6.8800    0.0000 N   0  0  0  0  0  0  0  0  0  0  0  0
   10.2240   -5.1290    0.0000 N   0  0  0  0  0  0  0  0  0  0  0  0
    2.0800   -8.8970    0.0000 N   0  0  0  0  0  0  0  0  0  0  0  0
   12.8210   -5.1610    0.0000 C   0  0  0  0  0  0  0  0  0  0  0  0
    7.6260   -5.0970    0.0000 C   0  0  0  0  0  0  0  0  0  0  0  0
    6.2630   -4.4690    0.0000 C   0  0  0  0  0  0  0  0  0  0  0  0
    5.2460   -5.5710    0.0000 C   0  0  0  0  0  0  0  0  0  0  0  0
   11.5320   -4.3950    0.0000 C   0  0  0  0  0  0  0  0  0  0  0  0
    7.4500   -6.5860    0.0000 C   0  0  0  0  0  0  0  0  0  0  0  0
   15.4190   -5.1940    0.0000 C   0  0  0  0  0  0  0  0  0  0  0  0
   14.1480   -2.9280    0.0000 C   0  0  0  0  0  0  0  0  0  0  0  0
    8.9340   -4.3630    0.0000 C   0  0  0  0  0  0  0  0  0  0  0  0
    2.8590   -6.5990    0.0000 C   0  0  0  0  0  0  0  0  0  0  0  0
    3.7560   -5.3960    0.0000 C   0  0  0  0  0  0  0  0  0  0  0  0
    1.3590   -6.5800    0.0000 C   0  0  0  0  0  0  0  0  0  0  0  0
    5.9700   -2.9980    0.0000 C   0  0  0  0  0  0  0  0  0  0  0  0
    0.8780   -8.0010    0.0000 C   0  0  0  0  0  0  0  0  0  0  0  0
    8.5520   -7.6040    0.0000 C   0  0  0  0  0  0  0  0  0  0  0  0
    3.3050   -8.0310    0.0000 C   0  0  0  0  0  0  0  0  0  0  0  0
   15.4010   -6.6940    0.0000 C   0  0  0  0  0  0  0  0  0  0  0  0
   15.4570   -2.1940    0.0000 C   0  0  0  0  0  0  0  0  0  0  0  0
    0.3700   -5.4530    0.0000 C   0  0  0  0  0  0  0  0  0  0  0  0
   -0.5930   -8.2940    0.0000 C   0  0  0  0  0  0  0  0  0  0  0  0
   -1.1010   -5.7460    0.0000 C   0  0  0  0  0  0  0  0  0  0  0  0
   -1.5830   -7.1670    0.0000 C   0  0  0  0  0  0  0  0  0  0  0  0
   12.0390   -6.0710    0.0000 H   0  0  0  0  0  0  0  0  0  0  0  0
   13.5810   -6.0900    0.0000 H   0  0  0  0  0  0  0  0  0  0  0  0
   10.7720   -3.4660    0.0000 H   0  0  0  0  0  0  0  0  0  0  0  0
   12.3150   -3.4860    0.0000 H   0  0  0  0  0  0  0  0  0  0  0  0
    5.4780   -7.9700    0.0000 H   0  0  0  0  0  0  0  0  0  0  0  0
   16.5980   -5.4170    0.0000 H   0  0  0  0  0  0  0  0  0  0  0  0
   15.8440   -4.0710    0.0000 H   0  0  0  0  0  0  0  0  0  0  0  0
   13.7520   -1.7950    0.0000 H   0  0  0  0  0  0  0  0  0  0  0  0
   12.9640   -3.1210    0.0000 H   0  0  0  0  0  0  0  0  0  0  0  0
    3.2820   -4.2940    0.0000 H   0  0  0  0  0  0  0  0  0  0  0  0
   10.2090   -6.3290    0.0000 H   0  0  0  0  0  0  0  0  0  0  0  0
    7.1460   -2.7640    0.0000 H   0  0  0  0  0  0  0  0  0  0  0  0
    5.7350   -1.8220    0.0000 H   0  0  0  0  0  0  0  0  0  0  0  0
    4.7930   -3.2330    0.0000 H   0  0  0  0  0  0  0  0  0  0  0  0
    7.7380   -8.4850    0.0000 H   0  0  0  0  0  0  0  0  0  0  0  0
    9.4340   -8.4180    0.0000 H   0  0  0  0  0  0  0  0  0  0  0  0
    9.3660   -6.7220    0.0000 H   0  0  0  0  0  0  0  0  0  0  0  0
   14.2010   -6.6790    0.0000 H   0  0  0  0  0  0  0  0  0  0  0  0
   15.3860   -7.8930    0.0000 H   0  0  0  0  0  0  0  0  0  0  0  0
   16.6010   -6.7090    0.0000 H   0  0  0  0  0  0  0  0  0  0  0  0
   16.0440   -3.2410    0.0000 H   0  0  0  0  0  0  0  0  0  0  0  0
   16.5030   -1.6070    0.0000 H   0  0  0  0  0  0  0  0  0  0  0  0
   14.8700   -1.1470    0.0000 H   0  0  0  0  0  0  0  0  0  0  0  0
    2.0650  -10.0970    0.0000 H   0  0  0  0  0  0  0  0  0  0  0  0
    0.7550   -4.3160    0.0000 H   0  0  0  0  0  0  0  0  0  0  0  0
   -0.9780   -9.4310    0.0000 H   0  0  0  0  0  0  0  0  0  0  0  0
   -2.7600   -7.4020    0.0000 H   0  0  0  0  0  0  0  0  0  0  0  0
  1 28  1  0  0  0  0
  2 16  2  0  0  0  0
  3 23  2  0  0  0  0
  4  8  1  0  0  0  0
  4 14  1  0  0  0  0
  4 15  1  0  0  0  0
  5 11  1  0  0  0  0
  5 13  1  0  0  0  0
  5 34  1  0  0  0  0
  6 12  1  0  0  0  0
  6 16  1  0  0  0  0
  6 40  1  0  0  0  0
  7 21  1  0  0  0  0
  7 23  1  0  0  0  0
  7 53  1  0  0  0  0
  8 12  1  0  0  0  0
  8 30  1  0  0  0  0
  8 31  1  0  0  0  0
  9 10  1  0  0  0  0
  9 13  2  0  0  0  0
  9 16  1  0  0  0  0
 10 11  2  0  0  0  0
 10 20  1  0  0  0  0
 11 18  1  0  0  0  0
 12 32  1  0  0  0  0
 12 33  1  0  0  0  0
 13 22  1  0  0  0  0
 14 24  1  0  0  0  0
 14 35  1  0  0  0  0
 14 36  1  0  0  0  0
 15 25  1  0  0  0  0
 15 37  1  0  0  0  0
 15 38  1  0  0  0  0
 17 18  2  0  0  0  0
 17 19  1  0  0  0  0
 17 23  1  0  0  0  0
 18 39  1  0  0  0  0
 19 21  1  0  0  0  0
 19 26  2  0  0  0  0
 20 41  1  0  0  0  0
 20 42  1  0  0  0  0
 20 43  1  0  0  0  0
 21 27  2  0  0  0  0
 22 44  1  0  0  0  0
 22 45  1  0  0  0  0
 22 46  1  0  0  0  0
 24 47  1  0  0  0  0
 24 48  1  0  0  0  0
 24 49  1  0  0  0  0
 25 50  1  0  0  0  0
 25 51  1  0  0  0  0
 25 52  1  0  0  0  0
 26 28  1  0  0  0  0
 26 54  1  0  0  0  0
 27 29  1  0  0  0  0
 27 55  1  0  0  0  0
 28 29  2  0  0  0  0
 29 56  1  0  0  0  0
M  END
$$$$
Telbivudine
  MOE2018           2D

 31 32  0  0  1  0  0  0  0  0999 V2000
   -0.2820    0.8770    0.0000 O   0  0  0  0  0  0  0  0  0  0  0  0
    2.3400   -1.9840    0.0000 O   0  0  0  0  0  0  0  0  0  0  0  0
    2.2130    2.7720    0.0000 O   0  0  0  0  0  0  0  0  0  0  0  0
   -2.6880   -2.9190    0.0000 O   0  0  0  0  0  0  0  0  0  0  0  0
   -7.1710   -0.2930    0.0000 O   0  0  0  0  0  0  0  0  0  0  0  0
   -2.6710   -0.3210    0.0000 N   0  0  0  0  0  0  0  0  0  0  0  0
   -4.9290   -1.6060    0.0000 N   0  0  0  0  0  0  0  0  0  0  0  0
    1.1320   -1.0950    0.0000 C   0  0  2  0  0  0  0  0  0  0  0  0
   -1.1710   -0.3310    0.0000 C   0  0  2  0  0  0  0  0  0  0  0  0
   -0.2970   -1.5500    0.0000 C   0  0  0  0  0  0  0  0  0  0  0  0
    1.1420    0.4050    0.0000 C   0  0  2  0  0  0  0  0  0  0  0  0
    2.3610    1.2790    0.0000 C   0  0  0  0  0  0  0  0  0  0  0  0
   -3.4130    0.9830    0.0000 C   0  0  0  0  0  0  0  0  0  0  0  0
   -3.4290   -1.6150    0.0000 C   0  0  0  0  0  0  0  0  0  0  0  0
   -4.9130    0.9920    0.0000 C   0  0  0  0  0  0  0  0  0  0  0  0
   -5.6710   -0.3020    0.0000 C   0  0  0  0  0  0  0  0  0  0  0  0
   -5.6550    2.2960    0.0000 C   0  0  0  0  0  0  0  0  0  0  0  0
    1.1320   -2.2950    0.0000 H   0  0  0  0  0  0  0  0  0  0  0  0
   -1.4820    0.8290    0.0000 H   0  0  0  0  0  0  0  0  0  0  0  0
    0.1840   -2.6490    0.0000 H   0  0  0  0  0  0  0  0  0  0  0  0
   -1.3400   -2.1430    0.0000 H   0  0  0  0  0  0  0  0  0  0  0  0
    2.3010    0.0940    0.0000 H   0  0  0  0  0  0  0  0  0  0  0  0
    3.5160    1.6020    0.0000 H   0  0  0  0  0  0  0  0  0  0  0  0
    2.8800    0.1970    0.0000 H   0  0  0  0  0  0  0  0  0  0  0  0
   -2.8070    2.0180    0.0000 H   0  0  0  0  0  0  0  0  0  0  0  0
    2.2070   -3.1770    0.0000 H   0  0  0  0  0  0  0  0  0  0  0  0
   -5.5360   -2.6410    0.0000 H   0  0  0  0  0  0  0  0  0  0  0  0
    3.1890    3.4710    0.0000 H   0  0  0  0  0  0  0  0  0  0  0  0
   -4.6120    2.8890    0.0000 H   0  0  0  0  0  0  0  0  0  0  0  0
   -6.2480    3.3390    0.0000 H   0  0  0  0  0  0  0  0  0  0  0  0
   -6.6980    1.7020    0.0000 H   0  0  0  0  0  0  0  0  0  0  0  0
  1  9  1  0  0  0  0
  1 11  1  0  0  0  0
  8  2  1  6  0  0  0
  2 26  1  0  0  0  0
  3 12  1  0  0  0  0
  3 28  1  0  0  0  0
  4 14  2  0  0  0  0
  5 16  2  0  0  0  0
  9  6  1  1  0  0  0
  6 13  1  0  0  0  0
  6 14  1  0  0  0  0
  7 14  1  0  0  0  0
  7 16  1  0  0  0  0
  7 27  1  0  0  0  0
  8 10  1  0  0  0  0
  8 11  1  0  0  0  0
  8 18  1  1  0  0  0
  9 10  1  0  0  0  0
  9 19  1  6  0  0  0
 10 20  1  0  0  0  0
 10 21  1  0  0  0  0
 11 12  1  1  0  0  0
 11 22  1  6  0  0  0
 12 23  1  0  0  0  0
 12 24  1  0  0  0  0
 13 15  2  0  0  0  0
 13 25  1  0  0  0  0
 15 16  1  0  0  0  0
 15 17  1  0  0  0  0
 17 29  1  0  0  0  0
 17 30  1  0  0  0  0
 17 31  1  0  0  0  0
M  END
$$$$
Voriconazole
  MOE2018           2D

 39 41  0  0  1  0  0  0  0  0999 V2000
    4.5530   -1.1110    0.0000 F   0  0  0  0  0  0  0  0  0  0  0  0
   -0.2950   -6.5080    0.0000 F   0  0  0  0  0  0  0  0  0  0  0  0
    7.1510   -5.6110    0.0000 F   0  0  0  0  0  0  0  0  0  0  0  0
    0.6560   -1.8610    0.0000 O   0  0  0  0  0  0  0  0  0  0  0  0
    1.9550   -0.0130    0.0000 N   0  0  0  0  0  0  0  0  0  0  0  0
   -1.0450   -2.6110    0.0000 N   0  0  0  0  0  0  0  0  0  0  0  0
    2.5650    1.3570    0.0000 N   0  0  0  0  0  0  0  0  0  0  0  0
    0.1520    1.6110    0.0000 N   0  0  0  0  0  0  0  0  0  0  0  0
   -3.2950   -3.9100    0.0000 N   0  0  0  0  0  0  0  0  0  0  0  0
    1.9550   -2.6110    0.0000 C   0  0  1  0  0  0  0  0  0  0  0  0
    1.2050   -3.9100    0.0000 C   0  0  1  0  0  0  0  0  0  0  0  0
    2.7050   -1.3120    0.0000 C   0  0  0  0  0  0  0  0  0  0  0  0
    3.2540   -3.3610    0.0000 C   0  0  0  0  0  0  0  0  0  0  0  0
    1.9550   -5.2090    0.0000 C   0  0  0  0  0  0  0  0  0  0  0  0
   -0.2950   -3.9100    0.0000 C   0  0  0  0  0  0  0  0  0  0  0  0
    4.5530   -2.6110    0.0000 C   0  0  0  0  0  0  0  0  0  0  0  0
    3.2540   -4.8610    0.0000 C   0  0  0  0  0  0  0  0  0  0  0  0
   -1.0450   -5.2090    0.0000 C   0  0  0  0  0  0  0  0  0  0  0  0
    5.8520   -3.3610    0.0000 C   0  0  0  0  0  0  0  0  0  0  0  0
    4.5530   -5.6110    0.0000 C   0  0  0  0  0  0  0  0  0  0  0  0
    0.4630    0.1430    0.0000 C   0  0  0  0  0  0  0  0  0  0  0  0
    5.8520   -4.8610    0.0000 C   0  0  0  0  0  0  0  0  0  0  0  0
   -2.5450   -5.2090    0.0000 C   0  0  0  0  0  0  0  0  0  0  0  0
   -2.5450   -2.6110    0.0000 C   0  0  0  0  0  0  0  0  0  0  0  0
    1.4510    2.3610    0.0000 C   0  0  0  0  0  0  0  0  0  0  0  0
    0.6050   -4.9500    0.0000 H   0  0  0  0  0  0  0  0  0  0  0  0
    3.6240   -0.5410    0.0000 H   0  0  0  0  0  0  0  0  0  0  0  0
    3.6240   -2.0840    0.0000 H   0  0  0  0  0  0  0  0  0  0  0  0
    0.9160   -5.8090    0.0000 H   0  0  0  0  0  0  0  0  0  0  0  0
    2.5550   -6.2490    0.0000 H   0  0  0  0  0  0  0  0  0  0  0  0
    2.4750   -4.9090    0.0000 H   0  0  0  0  0  0  0  0  0  0  0  0
    0.6560   -0.6610    0.0000 H   0  0  0  0  0  0  0  0  0  0  0  0
    2.7350   -5.1610    0.0000 H   0  0  0  0  0  0  0  0  0  0  0  0
    6.8920   -2.7610    0.0000 H   0  0  0  0  0  0  0  0  0  0  0  0
    4.5530   -6.8110    0.0000 H   0  0  0  0  0  0  0  0  0  0  0  0
   -0.3400   -0.7480    0.0000 H   0  0  0  0  0  0  0  0  0  0  0  0
   -3.1450   -6.2490    0.0000 H   0  0  0  0  0  0  0  0  0  0  0  0
   -3.1450   -1.5720    0.0000 H   0  0  0  0  0  0  0  0  0  0  0  0
    1.5760    3.5540    0.0000 H   0  0  0  0  0  0  0  0  0  0  0  0
  1 16  1  0  0  0  0
  2 18  1  0  0  0  0
  3 22  1  0  0  0  0
 10  4  1  1  0  0  0
  4 32  1  0  0  0  0
  5  7  1  0  0  0  0
  5 12  1  0  0  0  0
  5 21  1  0  0  0  0
  6 15  1  0  0  0  0
  6 24  2  0  0  0  0
  7 25  2  0  0  0  0
  8 21  2  0  0  0  0
  8 25  1  0  0  0  0
  9 23  2  0  0  0  0
  9 24  1  0  0  0  0
 10 11  1  0  0  0  0
 10 12  1  6  0  0  0
 10 13  1  0  0  0  0
 11 14  1  0  0  0  0
 11 15  1  1  0  0  0
 11 26  1  6  0  0  0
 12 27  1  0  0  0  0
 12 28  1  0  0  0  0
 13 16  1  0  0  0  0
 13 17  2  0  0  0  0
 14 29  1  0  0  0  0
 14 30  1  0  0  0  0
 14 31  1  0  0  0  0
 15 18  2  0  0  0  0
 16 19  2  0  0  0  0
 17 20  1  0  0  0  0
 17 33  1  0  0  0  0
 18 23  1  0  0  0  0
 19 22  1  0  0  0  0
 19 34  1  0  0  0  0
 20 22  2  0  0  0  0
 20 35  1  0  0  0  0
 21 36  1  0  0  0  0
 23 37  1  0  0  0  0
 24 38  1  0  0  0  0
 25 39  1  0  0  0  0
M  END
$$$$
Sitagliptin
  MOE2018           2D

 43 45  0  0  1  0  0  0  0  0999 V2000
    5.1880    1.1010    0.0000 N   0  0  0  0  0  0  0  0  0  0  0  0
    4.4380    2.4000    0.0000 C   0  0  1  0  0  0  0  0  0  0  0  0
    2.9380    2.4000    0.0000 C   0  0  0  0  0  0  0  0  0  0  0  0
    2.1880    1.1010    0.0000 C   0  0  0  0  0  0  0  0  0  0  0  0
    2.9380   -0.1980    0.0000 O   0  0  0  0  0  0  0  0  0  0  0  0
    0.6880    1.1010    0.0000 N   0  0  0  0  0  0  0  0  0  0  0  0
   -0.0620    2.4000    0.0000 C   0  0  0  0  0  0  0  0  0  0  0  0
   -1.5620    2.4000    0.0000 C   0  0  0  0  0  0  0  0  0  0  0  0
   -2.3120    1.1010    0.0000 N   0  0  0  0  0  0  0  0  0  0  0  0
   -1.5620   -0.1980    0.0000 C   0  0  0  0  0  0  0  0  0  0  0  0
   -0.0620   -0.1980    0.0000 C   0  0  0  0  0  0  0  0  0  0  0  0
   -2.5650   -1.3130    0.0000 N   0  0  0  0  0  0  0  0  0  0  0  0
   -3.9360   -0.7030    0.0000 N   0  0  0  0  0  0  0  0  0  0  0  0
   -3.7790    0.7890    0.0000 C   0  0  0  0  0  0  0  0  0  0  0  0
   -4.8940    1.7930    0.0000 C   0  0  0  0  0  0  0  0  0  0  0  0
   -3.8900    2.9080    0.0000 F   0  0  0  0  0  0  0  0  0  0  0  0
   -5.8970    0.6780    0.0000 F   0  0  0  0  0  0  0  0  0  0  0  0
   -6.0080    2.7970    0.0000 F   0  0  0  0  0  0  0  0  0  0  0  0
    5.1880    3.6990    0.0000 C   0  0  0  0  0  0  0  0  0  0  0  0
    6.6880    3.6990    0.0000 C   0  0  0  0  0  0  0  0  0  0  0  0
    7.4380    2.4000    0.0000 C   0  0  0  0  0  0  0  0  0  0  0  0
    8.9380    2.4000    0.0000 C   0  0  0  0  0  0  0  0  0  0  0  0
    9.6880    1.1010    0.0000 F   0  0  0  0  0  0  0  0  0  0  0  0
    9.6880    3.6990    0.0000 C   0  0  0  0  0  0  0  0  0  0  0  0
   11.1880    3.6990    0.0000 F   0  0  0  0  0  0  0  0  0  0  0  0
    8.9380    4.9980    0.0000 C   0  0  0  0  0  0  0  0  0  0  0  0
    7.4380    4.9980    0.0000 C   0  0  0  0  0  0  0  0  0  0  0  0
    6.6880    6.2970    0.0000 F   0  0  0  0  0  0  0  0  0  0  0  0
    4.5880    0.0620    0.0000 H   0  0  0  0  0  0  0  0  0  0  0  0
    6.3880    1.1010    0.0000 H   0  0  0  0  0  0  0  0  0  0  0  0
    3.8380    3.4390    0.0000 H   0  0  0  0  0  0  0  0  0  0  0  0
    1.8110    2.8110    0.0000 H   0  0  0  0  0  0  0  0  0  0  0  0
    3.1470    3.5820    0.0000 H   0  0  0  0  0  0  0  0  0  0  0  0
   -0.2700    3.5820    0.0000 H   0  0  0  0  0  0  0  0  0  0  0  0
    1.0660    2.8110    0.0000 H   0  0  0  0  0  0  0  0  0  0  0  0
   -2.6890    2.8110    0.0000 H   0  0  0  0  0  0  0  0  0  0  0  0
   -1.3530    3.5820    0.0000 H   0  0  0  0  0  0  0  0  0  0  0  0
    1.0660   -0.6080    0.0000 H   0  0  0  0  0  0  0  0  0  0  0  0
   -0.2700   -1.3800    0.0000 H   0  0  0  0  0  0  0  0  0  0  0  0
    5.3970    4.8810    0.0000 H   0  0  0  0  0  0  0  0  0  0  0  0
    4.0610    4.1100    0.0000 H   0  0  0  0  0  0  0  0  0  0  0  0
    6.8380    1.3610    0.0000 H   0  0  0  0  0  0  0  0  0  0  0  0
    9.5380    6.0370    0.0000 H   0  0  0  0  0  0  0  0  0  0  0  0
  1  2  1  0  0  0  0
  1 29  1  0  0  0  0
  1 30  1  0  0  0  0
  2  3  1  0  0  0  0
  2 19  1  1  0  0  0
  2 31  1  6  0  0  0
  3  4  1  0  0  0  0
  3 32  1  0  0  0  0
  3 33  1  0  0  0  0
  4  5  2  0  0  0  0
  4  6  1  0  0  0  0
  6  7  1  0  0  0  0
  6 11  1  0  0  0  0
  7  8  1  0  0  0  0
  7 34  1  0  0  0  0
  7 35  1  0  0  0  0
  8  9  1  0  0  0  0
  8 36  1  0  0  0  0
  8 37  1  0  0  0  0
  9 10  1  0  0  0  0
  9 14  1  0  0  0  0
 10 11  1  0  0  0  0
 10 12  2  0  0  0  0
 11 38  1  0  0  0  0
 11 39  1  0  0  0  0
 12 13  1  0  0  0  0
 13 14  2  0  0  0  0
 14 15  1  0  0  0  0
 15 16  1  0  0  0  0
 15 17  1  0  0  0  0
 15 18  1  0  0  0  0
 19 20  1  0  0  0  0
 19 40  1  0  0  0  0
 19 41  1  0  0  0  0
 20 21  1  0  0  0  0
 20 27  2  0  0  0  0
 21 22  2  0  0  0  0
 21 42  1  0  0  0  0
 22 23  1  0  0  0  0
 22 24  1  0  0  0  0
 24 25  1  0  0  0  0
 24 26  2  0  0  0  0
 26 27  1  0  0  0  0
 26 43  1  0  0  0  0
 27 28  1  0  0  0  0
M  END
$$$$
Dasatinib
  MOE2018           2D

 59 62  0  0  0  0  0  0  0  0999 V2000
  -10.0400   -7.4530    0.0000 Cl  0  0  0  0  0  0  0  0  0  0  0  0
   -5.4230   -7.0670    0.0000 S   0  0  0  0  0  0  0  0  0  0  0  0
    8.8310  -10.0240    0.0000 O   0  0  0  0  0  0  0  0  0  0  0  0
   -8.5430   -7.3560    0.0000 O   0  0  0  0  0  0  0  0  0  0  0  0
    4.9670   -9.1200    0.0000 N   0  0  0  0  0  0  0  0  0  0  0  0
    2.4300   -7.5180    0.0000 N   0  0  0  0  0  0  0  0  0  0  0  0
    1.2220   -5.2180    0.0000 N   0  0  0  0  0  0  0  0  0  0  0  0
   -1.3750   -5.1150    0.0000 N   0  0  0  0  0  0  0  0  0  0  0  0
   -2.7620   -7.3120    0.0000 N   0  0  0  0  0  0  0  0  0  0  0  0
   -4.1280   -5.0150    0.0000 N   0  0  0  0  0  0  0  0  0  0  0  0
   -8.7120   -4.7630    0.0000 N   0  0  0  0  0  0  0  0  0  0  0  0
    3.6390   -9.8180    0.0000 C   0  0  0  0  0  0  0  0  0  0  0  0
    5.0260   -7.6210    0.0000 C   0  0  0  0  0  0  0  0  0  0  0  0
    2.3710   -9.0170    0.0000 C   0  0  0  0  0  0  0  0  0  0  0  0
    3.7580   -6.8200    0.0000 C   0  0  0  0  0  0  0  0  0  0  0  0
    6.2350   -9.9210    0.0000 C   0  0  0  0  0  0  0  0  0  0  0  0
    1.1620   -6.7170    0.0000 C   0  0  0  0  0  0  0  0  0  0  0  0
    7.5630   -9.2230    0.0000 C   0  0  0  0  0  0  0  0  0  0  0  0
   -0.1660   -7.4150    0.0000 C   0  0  0  0  0  0  0  0  0  0  0  0
   -1.4340   -6.6140    0.0000 C   0  0  0  0  0  0  0  0  0  0  0  0
   -0.0470   -4.4180    0.0000 C   0  0  0  0  0  0  0  0  0  0  0  0
    0.0130   -2.9190    0.0000 C   0  0  0  0  0  0  0  0  0  0  0  0
   -4.0300   -6.5110    0.0000 C   0  0  0  0  0  0  0  0  0  0  0  0
   -6.3820   -5.9130    0.0000 C   0  0  0  0  0  0  0  0  0  0  0  0
  -10.2090   -4.8610    0.0000 C   0  0  0  0  0  0  0  0  0  0  0  0
   -5.5810   -4.6450    0.0000 C   0  0  0  0  0  0  0  0  0  0  0  0
  -11.0420   -3.6130    0.0000 C   0  0  0  0  0  0  0  0  0  0  0  0
   -7.8790   -6.0110    0.0000 C   0  0  0  0  0  0  0  0  0  0  0  0
  -10.8730   -6.2060    0.0000 C   0  0  0  0  0  0  0  0  0  0  0  0
  -12.5380   -3.7110    0.0000 C   0  0  0  0  0  0  0  0  0  0  0  0
  -10.3780   -2.2680    0.0000 C   0  0  0  0  0  0  0  0  0  0  0  0
  -12.3690   -6.3040    0.0000 C   0  0  0  0  0  0  0  0  0  0  0  0
  -13.2020   -5.0560    0.0000 C   0  0  0  0  0  0  0  0  0  0  0  0
    2.8320  -10.7060    0.0000 H   0  0  0  0  0  0  0  0  0  0  0  0
    4.3740  -10.7670    0.0000 H   0  0  0  0  0  0  0  0  0  0  0  0
    5.4810   -6.5100    0.0000 H   0  0  0  0  0  0  0  0  0  0  0  0
    6.1990   -7.8760    0.0000 H   0  0  0  0  0  0  0  0  0  0  0  0
    1.1980   -8.7620    0.0000 H   0  0  0  0  0  0  0  0  0  0  0  0
    1.9160  -10.1270    0.0000 H   0  0  0  0  0  0  0  0  0  0  0  0
    3.0240   -5.8710    0.0000 H   0  0  0  0  0  0  0  0  0  0  0  0
    4.5650   -5.9320    0.0000 H   0  0  0  0  0  0  0  0  0  0  0  0
    6.9700  -10.8700    0.0000 H   0  0  0  0  0  0  0  0  0  0  0  0
    5.4280  -10.8090    0.0000 H   0  0  0  0  0  0  0  0  0  0  0  0
    8.3700   -8.3350    0.0000 H   0  0  0  0  0  0  0  0  0  0  0  0
    6.8290   -8.2740    0.0000 H   0  0  0  0  0  0  0  0  0  0  0  0
   -0.2130   -8.6140    0.0000 H   0  0  0  0  0  0  0  0  0  0  0  0
    9.8940   -9.4650    0.0000 H   0  0  0  0  0  0  0  0  0  0  0  0
   -2.8090   -8.5110    0.0000 H   0  0  0  0  0  0  0  0  0  0  0  0
    1.2120   -2.9660    0.0000 H   0  0  0  0  0  0  0  0  0  0  0  0
    0.0600   -1.7200    0.0000 H   0  0  0  0  0  0  0  0  0  0  0  0
   -1.1860   -2.8710    0.0000 H   0  0  0  0  0  0  0  0  0  0  0  0
   -6.0260   -3.5300    0.0000 H   0  0  0  0  0  0  0  0  0  0  0  0
   -8.1810   -3.6870    0.0000 H   0  0  0  0  0  0  0  0  0  0  0  0
  -13.2050   -2.7130    0.0000 H   0  0  0  0  0  0  0  0  0  0  0  0
   -9.3020   -2.7990    0.0000 H   0  0  0  0  0  0  0  0  0  0  0  0
   -9.8470   -1.1920    0.0000 H   0  0  0  0  0  0  0  0  0  0  0  0
  -11.4540   -1.7370    0.0000 H   0  0  0  0  0  0  0  0  0  0  0  0
  -12.9010   -7.3800    0.0000 H   0  0  0  0  0  0  0  0  0  0  0  0
  -14.4000   -5.1340    0.0000 H   0  0  0  0  0  0  0  0  0  0  0  0
  1 29  1  0  0  0  0
  2 23  1  0  0  0  0
  2 24  1  0  0  0  0
  3 18  1  0  0  0  0
  3 47  1  0  0  0  0
  4 28  2  0  0  0  0
  5 12  1  0  0  0  0
  5 13  1  0  0  0  0
  5 16  1  0  0  0  0
  6 14  1  0  0  0  0
  6 15  1  0  0  0  0
  6 17  1  0  0  0  0
  7 17  1  0  0  0  0
  7 21  2  0  0  0  0
  8 20  2  0  0  0  0
  8 21  1  0  0  0  0
  9 20  1  0  0  0  0
  9 23  1  0  0  0  0
  9 48  1  0  0  0  0
 10 23  2  0  0  0  0
 10 26  1  0  0  0  0
 11 25  1  0  0  0  0
 11 28  1  0  0  0  0
 11 53  1  0  0  0  0
 12 14  1  0  0  0  0
 12 34  1  0  0  0  0
 12 35  1  0  0  0  0
 13 15  1  0  0  0  0
 13 36  1  0  0  0  0
 13 37  1  0  0  0  0
 14 38  1  0  0  0  0
 14 39  1  0  0  0  0
 15 40  1  0  0  0  0
 15 41  1  0  0  0  0
 16 18  1  0  0  0  0
 16 42  1  0  0  0  0
 16 43  1  0  0  0  0
 17 19  2  0  0  0  0
 18 44  1  0  0  0  0
 18 45  1  0  0  0  0
 19 20  1  0  0  0  0
 19 46  1  0  0  0  0
 21 22  1  0  0  0  0
 22 49  1  0  0  0  0
 22 50  1  0  0  0  0
 22 51  1  0  0  0  0
 24 26  2  0  0  0  0
 24 28  1  0  0  0  0
 25 27  2  0  0  0  0
 25 29  1  0  0  0  0
 26 52  1  0  0  0  0
 27 30  1  0  0  0  0
 27 31  1  0  0  0  0
 29 32  2  0  0  0  0
 30 33  2  0  0  0  0
 30 54  1  0  0  0  0
 31 55  1  0  0  0  0
 31 56  1  0  0  0  0
 31 57  1  0  0  0  0
 32 33  1  0  0  0  0
 32 58  1  0  0  0  0
 33 59  1  0  0  0  0
M  END
$$$$
Pentobarbital
  MOE2018           2D

 34 34  0  0  1  0  0  0  0  0999 V2000
    9.3250   -2.4050    0.0000 C   0  0  0  0  0  0  0  0  0  0  0  0
    8.0250   -3.1550    0.0000 C   0  0  0  0  0  0  0  0  0  0  0  0
    6.7260   -2.4050    0.0000 C   0  0  0  0  0  0  0  0  0  0  0  0
    5.4270   -3.1550    0.0000 C   0  0  2  0  0  0  0  0  0  0  0  0
    5.4270   -4.6550    0.0000 C   0  0  0  0  0  0  0  0  0  0  0  0
    4.1280   -2.4050    0.0000 C   0  0  0  0  0  0  0  0  0  0  0  0
    3.3780   -3.7040    0.0000 C   0  0  0  0  0  0  0  0  0  0  0  0
    4.1280   -5.0030    0.0000 O   0  0  0  0  0  0  0  0  0  0  0  0
    1.8780   -3.7040    0.0000 N   0  0  0  0  0  0  0  0  0  0  0  0
    1.1280   -2.4050    0.0000 C   0  0  0  0  0  0  0  0  0  0  0  0
   -0.3720   -2.4050    0.0000 O   0  0  0  0  0  0  0  0  0  0  0  0
    1.8780   -1.1060    0.0000 N   0  0  0  0  0  0  0  0  0  0  0  0
    3.3780   -1.1060    0.0000 C   0  0  0  0  0  0  0  0  0  0  0  0
    4.1280    0.1930    0.0000 O   0  0  0  0  0  0  0  0  0  0  0  0
    5.4270   -1.6550    0.0000 C   0  0  0  0  0  0  0  0  0  0  0  0
    5.4270   -0.1550    0.0000 C   0  0  0  0  0  0  0  0  0  0  0  0
    9.9250   -3.4440    0.0000 H   0  0  0  0  0  0  0  0  0  0  0  0
   10.3640   -1.8050    0.0000 H   0  0  0  0  0  0  0  0  0  0  0  0
    8.7250   -1.3660    0.0000 H   0  0  0  0  0  0  0  0  0  0  0  0
    7.2540   -4.0740    0.0000 H   0  0  0  0  0  0  0  0  0  0  0  0
    8.7970   -4.0740    0.0000 H   0  0  0  0  0  0  0  0  0  0  0  0
    5.9550   -1.4850    0.0000 H   0  0  0  0  0  0  0  0  0  0  0  0
    7.4980   -1.4850    0.0000 H   0  0  0  0  0  0  0  0  0  0  0  0
    6.4670   -3.7550    0.0000 H   0  0  0  0  0  0  0  0  0  0  0  0
    4.8270   -4.6550    0.0000 H   0  0  0  0  0  0  0  0  0  0  0  0
    5.4270   -5.8550    0.0000 H   0  0  0  0  0  0  0  0  0  0  0  0
    6.6270   -4.6550    0.0000 H   0  0  0  0  0  0  0  0  0  0  0  0
    1.2780   -4.7430    0.0000 H   0  0  0  0  0  0  0  0  0  0  0  0
    1.2780   -0.0660    0.0000 H   0  0  0  0  0  0  0  0  0  0  0  0
    6.6090   -1.4460    0.0000 H   0  0  0  0  0  0  0  0  0  0  0  0
    5.8380   -2.7820    0.0000 H   0  0  0  0  0  0  0  0  0  0  0  0
    6.6270   -0.1550    0.0000 H   0  0  0  0  0  0  0  0  0  0  0  0
    5.4270    1.0450    0.0000 H   0  0  0  0  0  0  0  0  0  0  0  0
    4.8270   -0.1550    0.0000 H   0  0  0  0  0  0  0  0  0  0  0  0
  1  2  1  0  0  0  0
  1 17  1  0  0  0  0
  1 18  1  0  0  0  0
  1 19  1  0  0  0  0
  2  3  1  0  0  0  0
  2 20  1  0  0  0  0
  2 21  1  0  0  0  0
  3  4  1  0  0  0  0
  3 22  1  0  0  0  0
  3 23  1  0  0  0  0
  4  5  1  6  0  0  0
  4  6  1  0  0  0  0
  4 24  1  1  0  0  0
  5 25  1  0  0  0  0
  5 26  1  0  0  0  0
  5 27  1  0  0  0  0
  6  7  1  0  0  0  0
  6 13  1  0  0  0  0
  6 15  1  0  0  0  0
  7  8  2  0  0  0  0
  7  9  1  0  0  0  0
  9 10  1  0  0  0  0
  9 28  1  0  0  0  0
 10 11  2  0  0  0  0
 10 12  1  0  0  0  0
 12 13  1  0  0  0  0
 12 29  1  0  0  0  0
 13 14  2  0  0  0  0
 15 16  1  0  0  0  0
 15 30  1  0  0  0  0
 15 31  1  0  0  0  0
 16 32  1  0  0  0  0
 16 33  1  0  0  0  0
 16 34  1  0  0  0  0
M  END
$$$$
