C12H12N2O3
  MOE2018           3D

 29 30  0  0  0  0  0  0  0  0999 V2000
    0.3360   -0.4110    2.3760 O   0  0  0  0  0  0  0  0  0  0  0  0
    0.8010   -0.1080    1.2980 C   0  0  0  0  0  0  0  0  0  0  0  0
    1.9220    0.6380    1.2040 N   0  0  0  0  0  0  0  0  0  0  0  0
    2.4480    0.9800    0.0220 C   0  0  0  0  0  0  0  0  0  0  0  0
    3.4600    1.6530    0.0290 O   0  0  0  0  0  0  0  0  0  0  0  0
    1.9410    0.6350   -1.1680 N   0  0  0  0  0  0  0  0  0  0  0  0
    0.8220   -0.1100   -1.2780 C   0  0  0  0  0  0  0  0  0  0  0  0
    0.3740   -0.4150   -2.3630 O   0  0  0  0  0  0  0  0  0  0  0  0
    0.1480   -0.5580    0.0050 C   0  0  0  0  0  0  0  0  0  0  0  0
    0.0820   -2.0870    0.0000 C   0  0  0  0  0  0  0  0  0  0  0  0
    1.5000   -2.6580   -0.0770 C   0  0  0  0  0  0  0  0  0  0  0  0
   -1.2660   -0.0360   -0.0010 C   0  0  0  0  0  0  0  0  0  0  0  0
   -1.5000    1.3240   -0.0680 C   0  0  0  0  0  0  0  0  0  0  0  0
   -2.7970    1.8030   -0.0730 C   0  0  0  0  0  0  0  0  0  0  0  0
   -3.8600    0.9210   -0.0130 C   0  0  0  0  0  0  0  0  0  0  0  0
   -3.6260   -0.4400    0.0530 C   0  0  0  0  0  0  0  0  0  0  0  0
   -2.3290   -0.9190    0.0540 C   0  0  0  0  0  0  0  0  0  0  0  0
    2.3600    0.9340    2.0170 H   0  0  0  0  0  0  0  0  0  0  0  0
    2.3920    0.9300   -1.9740 H   0  0  0  0  0  0  0  0  0  0  0  0
   -0.3990   -2.4330    0.9150 H   0  0  0  0  0  0  0  0  0  0  0  0
   -0.4920   -2.4230   -0.8630 H   0  0  0  0  0  0  0  0  0  0  0  0
    1.4540   -3.7470   -0.0810 H   0  0  0  0  0  0  0  0  0  0  0  0
    1.9810   -2.3120   -0.9920 H   0  0  0  0  0  0  0  0  0  0  0  0
    2.0750   -2.3210    0.7860 H   0  0  0  0  0  0  0  0  0  0  0  0
   -0.6700    2.0130   -0.1150 H   0  0  0  0  0  0  0  0  0  0  0  0
   -2.9800    2.8660   -0.1240 H   0  0  0  0  0  0  0  0  0  0  0  0
   -4.8730    1.2950   -0.0160 H   0  0  0  0  0  0  0  0  0  0  0  0
   -4.4560   -1.1290    0.1000 H   0  0  0  0  0  0  0  0  0  0  0  0
   -2.1460   -1.9820    0.1050 H   0  0  0  0  0  0  0  0  0  0  0  0
  1  2  2  0  0  0  0
  2  3  1  0  0  0  0
  2  9  1  0  0  0  0
  3  4  1  0  0  0  0
  3 18  1  0  0  0  0
  4  5  2  0  0  0  0
  4  6  1  0  0  0  0
  6  7  1  0  0  0  0
  6 19  1  0  0  0  0
  7  8  2  0  0  0  0
  7  9  1  0  0  0  0
  9 10  1  0  0  0  0
  9 12  1  0  0  0  0
 10 11  1  0  0  0  0
 10 20  1  0  0  0  0
 10 21  1  0  0  0  0
 11 22  1  0  0  0  0
 11 23  1  0  0  0  0
 11 24  1  0  0  0  0
 12 13  1  0  0  0  0
 12 17  2  0  0  0  0
 13 14  2  0  0  0  0
 13 25  1  0  0  0  0
 14 15  1  0  0  0  0
 14 26  1  0  0  0  0
 15 16  2  0  0  0  0
 15 27  1  0  0  0  0
 16 17  1  0  0  0  0
 16 28  1  0  0  0  0
 17 29  1  0  0  0  0
M  END
>  <UNIQUE_SMILES>
O=C1C(CC)(c2ccccc2)C(=O)NC(=O)N1

>  <USER_SUPPLIED_SMILES>
O=C1C(CC)(c2ccccc2)C(=O)NC(=O)N1

$$$$
C19H19ClFN
  MOE2018           3D

 41 43  0  0  0  0  0  0  0  0999 V2000
   -3.7090    3.4590    0.0450 Cl  0  0  0  0  0  0  0  0  0  0  0  0
   -2.3150    2.4250    0.0170 C   0  0  0  0  0  0  0  0  0  0  0  0
   -1.0420    2.9800    0.0470 C   0  0  0  0  0  0  0  0  0  0  0  0
    0.0760    2.1760    0.0260 C   0  0  0  0  0  0  0  0  0  0  0  0
   -0.0650    0.7930   -0.0260 C   0  0  0  0  0  0  0  0  0  0  0  0
    0.8360   -0.2510   -0.0590 N   0  0  0  0  0  0  0  0  0  0  0  0
    0.1640   -1.4430   -0.1080 C   0  0  0  0  0  0  0  0  0  0  0  0
   -1.1610   -1.2220   -0.1100 C   0  0  0  0  0  0  0  0  0  0  0  0
   -1.3530    0.2300   -0.0570 C   0  0  0  0  0  0  0  0  0  0  0  0
   -2.4770    1.0580   -0.0300 C   0  0  0  0  0  0  0  0  0  0  0  0
   -2.2440   -2.2680   -0.1580 C   0  0  0  0  0  0  0  0  0  0  0  0
   -2.1000   -3.0940   -1.4370 C   0  0  0  0  0  0  0  0  0  0  0  0
   -3.2700   -4.0730   -1.5480 C   0  0  0  0  0  0  0  0  0  0  0  0
   -2.1190   -3.1870    1.0590 C   0  0  0  0  0  0  0  0  0  0  0  0
   -2.3870   -2.3850    2.3340 C   0  0  0  0  0  0  0  0  0  0  0  0
    2.2310   -0.1120   -0.0440 C   0  0  0  0  0  0  0  0  0  0  0  0
    2.9920   -0.8460    0.8560 C   0  0  0  0  0  0  0  0  0  0  0  0
    4.3670   -0.7090    0.8690 C   0  0  0  0  0  0  0  0  0  0  0  0
    4.9850    0.1610   -0.0140 C   0  0  0  0  0  0  0  0  0  0  0  0
    6.3290    0.2940    0.0000 F   0  0  0  0  0  0  0  0  0  0  0  0
    4.2270    0.8930   -0.9120 C   0  0  0  0  0  0  0  0  0  0  0  0
    2.8530    0.7540   -0.9320 C   0  0  0  0  0  0  0  0  0  0  0  0
   -0.9280    4.0540    0.0880 H   0  0  0  0  0  0  0  0  0  0  0  0
    1.0610    2.6180    0.0500 H   0  0  0  0  0  0  0  0  0  0  0  0
    0.6290   -2.4170   -0.1410 H   0  0  0  0  0  0  0  0  0  0  0  0
   -3.4680    0.6290   -0.0490 H   0  0  0  0  0  0  0  0  0  0  0  0
   -3.2190   -1.7820   -0.1470 H   0  0  0  0  0  0  0  0  0  0  0  0
   -2.1000   -2.4280   -2.3010 H   0  0  0  0  0  0  0  0  0  0  0  0
   -1.1620   -3.6500   -1.4070 H   0  0  0  0  0  0  0  0  0  0  0  0
   -3.1670   -4.6610   -2.4600 H   0  0  0  0  0  0  0  0  0  0  0  0
   -3.2700   -4.7380   -0.6840 H   0  0  0  0  0  0  0  0  0  0  0  0
   -4.2070   -3.5160   -1.5780 H   0  0  0  0  0  0  0  0  0  0  0  0
   -2.8450   -3.9960    0.9800 H   0  0  0  0  0  0  0  0  0  0  0  0
   -1.1130   -3.6050    1.0970 H   0  0  0  0  0  0  0  0  0  0  0  0
   -2.2980   -3.0400    3.2010 H   0  0  0  0  0  0  0  0  0  0  0  0
   -1.6610   -1.5760    2.4140 H   0  0  0  0  0  0  0  0  0  0  0  0
   -3.3930   -1.9680    2.2960 H   0  0  0  0  0  0  0  0  0  0  0  0
    2.5100   -1.5240    1.5450 H   0  0  0  0  0  0  0  0  0  0  0  0
    4.9590   -1.2790    1.5680 H   0  0  0  0  0  0  0  0  0  0  0  0
    4.7110    1.5700   -1.6000 H   0  0  0  0  0  0  0  0  0  0  0  0
    2.2620    1.3260   -1.6330 H   0  0  0  0  0  0  0  0  0  0  0  0
  1  2  1  0  0  0  0
  2  3  1  0  0  0  0
  2 10  2  0  0  0  0
  3  4  2  0  0  0  0
  3 23  1  0  0  0  0
  4  5  1  0  0  0  0
  4 24  1  0  0  0  0
  5  6  1  0  0  0  0
  5  9  2  0  0  0  0
  6  7  1  0  0  0  0
  6 16  1  0  0  0  0
  7  8  2  0  0  0  0
  7 25  1  0  0  0  0
  8  9  1  0  0  0  0
  8 11  1  0  0  0  0
  9 10  1  0  0  0  0
 10 26  1  0  0  0  0
 11 12  1  0  0  0  0
 11 14  1  0  0  0  0
 11 27  1  0  0  0  0
 12 13  1  0  0  0  0
 12 28  1  0  0  0  0
 12 29  1  0  0  0  0
 13 30  1  0  0  0  0
 13 31  1  0  0  0  0
 13 32  1  0  0  0  0
 14 15  1  0  0  0  0
 14 33  1  0  0  0  0
 14 34  1  0  0  0  0
 15 35  1  0  0  0  0
 15 36  1  0  0  0  0
 15 37  1  0  0  0  0
 16 17  1  0  0  0  0
 16 22  2  0  0  0  0
 17 18  2  0  0  0  0
 17 38  1  0  0  0  0
 18 19  1  0  0  0  0
 18 39  1  0  0  0  0
 19 20  1  0  0  0  0
 19 21  2  0  0  0  0
 21 22  1  0  0  0  0
 21 40  1  0  0  0  0
 22 41  1  0  0  0  0
M  END
>  <UNIQUE_SMILES>
Clc1cc2c(C(CC)CC)cn(-c3ccc(F)cc3)c2cc1

>  <USER_SUPPLIED_SMILES>
Clc1cc2c(C(CC)CC)cn(-c3ccc(F)cc3)c2cc1

$$$$
C17H13ClFNO
  MOE2018           3D

 34 36  0  0  0  0  0  0  0  0999 V2000
   -3.9200    3.1660    0.1080 Cl  0  0  0  0  0  0  0  0  0  0  0  0
   -2.4850    2.1890    0.0740 C   0  0  0  0  0  0  0  0  0  0  0  0
   -1.2360    2.7940    0.0900 C   0  0  0  0  0  0  0  0  0  0  0  0
   -0.0870    2.0330    0.0640 C   0  0  0  0  0  0  0  0  0  0  0  0
   -0.1740    0.6450    0.0210 C   0  0  0  0  0  0  0  0  0  0  0  0
    0.7780   -0.3570   -0.0130 N   0  0  0  0  0  0  0  0  0  0  0  0
    0.1850   -1.5740   -0.0500 C   0  0  0  0  0  0  0  0  0  0  0  0
   -1.1860   -1.4190   -0.0420 C   0  0  0  0  0  0  0  0  0  0  0  0
   -1.4370    0.0350    0.0040 C   0  0  0  0  0  0  0  0  0  0  0  0
   -2.5900    0.8140    0.0360 C   0  0  0  0  0  0  0  0  0  0  0  0
   -2.1580   -2.4490   -0.0730 C   0  0  0  0  0  0  0  0  0  0  0  0
   -3.3390   -2.1700   -0.0620 O   0  0  0  0  0  0  0  0  0  0  0  0
   -1.7250   -3.8920   -0.1180 C   0  0  0  0  0  0  0  0  0  0  0  0
   -2.9600   -4.7940   -0.1440 C   0  0  0  0  0  0  0  0  0  0  0  0
    2.1620   -0.1440   -0.0090 C   0  0  0  0  0  0  0  0  0  0  0  0
    2.9690   -0.8300    0.8890 C   0  0  0  0  0  0  0  0  0  0  0  0
    4.3340   -0.6190    0.8910 C   0  0  0  0  0  0  0  0  0  0  0  0
    4.8980    0.2760   -0.0020 C   0  0  0  0  0  0  0  0  0  0  0  0
    6.2330    0.4820    0.0010 F   0  0  0  0  0  0  0  0  0  0  0  0
    4.0950    0.9620   -0.8980 C   0  0  0  0  0  0  0  0  0  0  0  0
    2.7310    0.7490   -0.9070 C   0  0  0  0  0  0  0  0  0  0  0  0
   -1.1630    3.8710    0.1240 H   0  0  0  0  0  0  0  0  0  0  0  0
    0.8800    2.5140    0.0770 H   0  0  0  0  0  0  0  0  0  0  0  0
    0.7050   -2.5200   -0.0810 H   0  0  0  0  0  0  0  0  0  0  0  0
   -3.5630    0.3440    0.0290 H   0  0  0  0  0  0  0  0  0  0  0  0
   -1.1300   -4.0650   -1.0140 H   0  0  0  0  0  0  0  0  0  0  0  0
   -1.1270   -4.1200    0.7650 H   0  0  0  0  0  0  0  0  0  0  0  0
   -2.6480   -5.8380   -0.1760 H   0  0  0  0  0  0  0  0  0  0  0  0
   -3.5550   -4.6220    0.7530 H   0  0  0  0  0  0  0  0  0  0  0  0
   -3.5580   -4.5670   -1.0260 H   0  0  0  0  0  0  0  0  0  0  0  0
    2.5290   -1.5290    1.5860 H   0  0  0  0  0  0  0  0  0  0  0  0
    4.9620   -1.1530    1.5890 H   0  0  0  0  0  0  0  0  0  0  0  0
    4.5370    1.6600   -1.5940 H   0  0  0  0  0  0  0  0  0  0  0  0
    2.1050    1.2840   -1.6060 H   0  0  0  0  0  0  0  0  0  0  0  0
  1  2  1  0  0  0  0
  2  3  1  0  0  0  0
  2 10  2  0  0  0  0
  3  4  2  0  0  0  0
  3 22  1  0  0  0  0
  4  5  1  0  0  0  0
  4 23  1  0  0  0  0
  5  6  1  0  0  0  0
  5  9  2  0  0  0  0
  6  7  1  0  0  0  0
  6 15  1  0  0  0  0
  7  8  2  0  0  0  0
  7 24  1  0  0  0  0
  8  9  1  0  0  0  0
  8 11  1  0  0  0  0
  9 10  1  0  0  0  0
 10 25  1  0  0  0  0
 11 12  2  0  0  0  0
 11 13  1  0  0  0  0
 13 14  1  0  0  0  0
 13 26  1  0  0  0  0
 13 27  1  0  0  0  0
 14 28  1  0  0  0  0
 14 29  1  0  0  0  0
 14 30  1  0  0  0  0
 15 16  1  0  0  0  0
 15 21  2  0  0  0  0
 16 17  2  0  0  0  0
 16 31  1  0  0  0  0
 17 18  1  0  0  0  0
 17 32  1  0  0  0  0
 18 19  1  0  0  0  0
 18 20  2  0  0  0  0
 20 21  1  0  0  0  0
 20 33  1  0  0  0  0
 21 34  1  0  0  0  0
M  END
>  <UNIQUE_SMILES>
Clc1cc2c(C(=O)CC)cn(-c3ccc(F)cc3)c2cc1

>  <USER_SUPPLIED_SMILES>
Clc1cc2c(C(=O)CC)cn(-c3ccc(F)cc3)c2cc1

$$$$
C16H13ClFN
  MOE2018           3D

 32 34  0  0  0  0  0  0  0  0999 V2000
   -4.6140    1.9860    0.0820 Cl  0  0  0  0  0  0  0  0  0  0  0  0
   -3.0300    1.2770    0.0830 C   0  0  0  0  0  0  0  0  0  0  0  0
   -1.9070    2.0930    0.0140 C   0  0  0  0  0  0  0  0  0  0  0  0
   -0.6420    1.5480    0.0130 C   0  0  0  0  0  0  0  0  0  0  0  0
   -0.4800    0.1690    0.0820 C   0  0  0  0  0  0  0  0  0  0  0  0
    0.6250   -0.6570    0.1000 N   0  0  0  0  0  0  0  0  0  0  0  0
    0.2270   -1.9650    0.1780 C   0  0  0  0  0  0  0  0  0  0  0  0
   -1.1130   -2.0340    0.2140 C   0  0  0  0  0  0  0  0  0  0  0  0
   -1.9440   -3.2880    0.3000 C   0  0  0  0  0  0  0  0  0  0  0  0
   -2.3650   -3.7190   -1.1060 C   0  0  0  0  0  0  0  0  0  0  0  0
   -1.6160   -0.6580    0.1530 C   0  0  0  0  0  0  0  0  0  0  0  0
   -2.8920   -0.0920    0.1580 C   0  0  0  0  0  0  0  0  0  0  0  0
    1.9560   -0.2220    0.0450 C   0  0  0  0  0  0  0  0  0  0  0  0
    2.8800   -0.6900    0.9700 C   0  0  0  0  0  0  0  0  0  0  0  0
    4.1910   -0.2610    0.9140 C   0  0  0  0  0  0  0  0  0  0  0  0
    4.5850    0.6370   -0.0640 C   0  0  0  0  0  0  0  0  0  0  0  0
    5.8680    1.0560   -0.1170 F   0  0  0  0  0  0  0  0  0  0  0  0
    3.6660    1.1050   -0.9880 C   0  0  0  0  0  0  0  0  0  0  0  0
    2.3550    0.6740   -0.9380 C   0  0  0  0  0  0  0  0  0  0  0  0
   -2.0280    3.1640   -0.0410 H   0  0  0  0  0  0  0  0  0  0  0  0
    0.2240    2.1920   -0.0420 H   0  0  0  0  0  0  0  0  0  0  0  0
    0.8920   -2.8150    0.2070 H   0  0  0  0  0  0  0  0  0  0  0  0
   -1.3570   -4.0810    0.7630 H   0  0  0  0  0  0  0  0  0  0  0  0
   -2.8320   -3.0950    0.9020 H   0  0  0  0  0  0  0  0  0  0  0  0
   -2.9660   -4.6260   -1.0440 H   0  0  0  0  0  0  0  0  0  0  0  0
   -2.9520   -2.9260   -1.5690 H   0  0  0  0  0  0  0  0  0  0  0  0
   -1.4760   -3.9120   -1.7080 H   0  0  0  0  0  0  0  0  0  0  0  0
   -3.7660   -0.7230    0.2160 H   0  0  0  0  0  0  0  0  0  0  0  0
    2.5720   -1.3900    1.7330 H   0  0  0  0  0  0  0  0  0  0  0  0
    4.9100   -0.6250    1.6330 H   0  0  0  0  0  0  0  0  0  0  0  0
    3.9760    1.8060   -1.7500 H   0  0  0  0  0  0  0  0  0  0  0  0
    1.6380    1.0400   -1.6590 H   0  0  0  0  0  0  0  0  0  0  0  0
  1  2  1  0  0  0  0
  2  3  1  0  0  0  0
  2 12  2  0  0  0  0
  3  4  2  0  0  0  0
  3 20  1  0  0  0  0
  4  5  1  0  0  0  0
  4 21  1  0  0  0  0
  5  6  1  0  0  0  0
  5 11  2  0  0  0  0
  6  7  1  0  0  0  0
  6 13  1  0  0  0  0
  7  8  2  0  0  0  0
  7 22  1  0  0  0  0
  8  9  1  0  0  0  0
  8 11  1  0  0  0  0
  9 10  1  0  0  0  0
  9 23  1  0  0  0  0
  9 24  1  0  0  0  0
 10 25  1  0  0  0  0
 10 26  1  0  0  0  0
 10 27  1  0  0  0  0
 11 12  1  0  0  0  0
 12 28  1  0  0  0  0
 13 14  1  0  0  0  0
 13 19  2  0  0  0  0
 14 15  2  0  0  0  0
 14 29  1  0  0  0  0
 15 16  1  0  0  0  0
 15 30  1  0  0  0  0
 16 17  1  0  0  0  0
 16 18  2  0  0  0  0
 18 19  1  0  0  0  0
 18 31  1  0  0  0  0
 19 32  1  0  0  0  0
M  END
>  <UNIQUE_SMILES>
Clc1cc2c(CC)cn(-c3ccc(F)cc3)c2cc1

>  <USER_SUPPLIED_SMILES>
Clc1cc2c(CC)cn(-c3ccc(F)cc3)c2cc1

$$$$
C21H24FN3O4
  MOE2018           3D

 53 57  0  0  1  0  0  0  0  0999 V2000
   -2.1570   -1.7870    0.1640 F   0  0  0  0  0  0  0  0  0  0  0  0
   -0.9990   -1.0980    0.0650 C   0  0  0  0  0  0  0  0  0  0  0  0
   -1.0280    0.2890   -0.0940 C   0  0  0  0  0  0  0  0  0  0  0  0
   -2.2540    0.9540   -0.1490 N   0  0  0  0  0  0  0  0  0  0  0  0
   -2.9900    0.3980   -1.3130 C   0  0  0  0  0  0  0  0  0  0  0  0
   -4.1660   -0.3820   -0.7320 C   0  0  3  0  0  0  0  0  0  0  0  0
   -4.4280    0.3740    0.6020 C   0  0  3  0  0  0  0  0  0  0  0  0
   -5.2820   -0.4700    1.4170 N   0  0  0  0  0  0  0  0  0  0  0  0
   -6.5930   -0.4500    0.7420 C   0  0  0  0  0  0  0  0  0  0  0  0
   -6.5260   -1.0420   -0.6620 C   0  0  0  0  0  0  0  0  0  0  0  0
   -5.4650   -0.3260   -1.5180 C   0  0  0  0  0  0  0  0  0  0  0  0
   -2.9940    0.5910    1.0910 C   0  0  0  0  0  0  0  0  0  0  0  0
    0.1540    1.0110   -0.1980 C   0  0  0  0  0  0  0  0  0  0  0  0
    0.1170    2.3620   -0.3520 O   0  0  0  0  0  0  0  0  0  0  0  0
    0.1300    2.9280    0.9600 C   0  0  0  0  0  0  0  0  0  0  0  0
    1.3770    0.3460   -0.1420 C   0  0  0  0  0  0  0  0  0  0  0  0
    2.5620    1.0480   -0.2430 N   0  0  0  0  0  0  0  0  0  0  0  0
    2.5040    2.5020   -0.4090 C   0  0  0  0  0  0  0  0  0  0  0  0
    3.0180    3.3660    0.7440 C   0  0  0  0  0  0  0  0  0  0  0  0
    3.8310    3.2510   -0.5470 C   0  0  0  0  0  0  0  0  0  0  0  0
    3.7610    0.4550   -0.1950 C   0  0  0  0  0  0  0  0  0  0  0  0
    3.9010   -0.9100   -0.0410 C   0  0  0  0  0  0  0  0  0  0  0  0
    2.6920   -1.7410    0.0750 C   0  0  0  0  0  0  0  0  0  0  0  0
    2.7630   -2.9500    0.2120 O   0  0  0  0  0  0  0  0  0  0  0  0
    1.3920   -1.0520    0.0180 C   0  0  0  0  0  0  0  0  0  0  0  0
    0.1940   -1.7620    0.1260 C   0  0  0  0  0  0  0  0  0  0  0  0
    5.2360   -1.5220    0.0070 C   0  0  0  0  0  0  0  0  0  0  0  0
    5.3600   -2.8560    0.1580 O   0  0  0  0  0  0  0  0  0  0  0  0
    6.2280   -0.8270   -0.0900 O   0  0  0  0  0  0  0  0  0  0  0  0
   -3.3520    1.2050   -1.9490 H   0  0  0  0  0  0  0  0  0  0  0  0
   -2.3430   -0.2690   -1.8830 H   0  0  0  0  0  0  0  0  0  0  0  0
   -3.8760   -1.4140   -0.5340 H   0  0  0  0  0  0  0  0  0  0  0  0
   -4.9180    1.3280    0.4070 H   0  0  0  0  0  0  0  0  0  0  0  0
   -4.9260   -1.4100    1.3320 H   0  0  0  0  0  0  0  0  0  0  0  0
   -7.3050   -1.0250    1.3350 H   0  0  0  0  0  0  0  0  0  0  0  0
   -6.9410    0.5800    0.6760 H   0  0  0  0  0  0  0  0  0  0  0  0
   -6.2750   -2.1000   -0.5920 H   0  0  0  0  0  0  0  0  0  0  0  0
   -7.5000   -0.9380   -1.1400 H   0  0  0  0  0  0  0  0  0  0  0  0
   -5.7570    0.7110   -1.6850 H   0  0  0  0  0  0  0  0  0  0  0  0
   -5.3460   -0.8400   -2.4720 H   0  0  0  0  0  0  0  0  0  0  0  0
   -2.5930   -0.3260    1.5230 H   0  0  0  0  0  0  0  0  0  0  0  0
   -2.9550    1.4060    1.8140 H   0  0  0  0  0  0  0  0  0  0  0  0
    0.1010    4.0150    0.8870 H   0  0  0  0  0  0  0  0  0  0  0  0
   -0.7410    2.5780    1.5150 H   0  0  0  0  0  0  0  0  0  0  0  0
    1.0380    2.6220    1.4790 H   0  0  0  0  0  0  0  0  0  0  0  0
    1.6530    2.8770   -0.9780 H   0  0  0  0  0  0  0  0  0  0  0  0
    2.5050    4.3090    0.9340 H   0  0  0  0  0  0  0  0  0  0  0  0
    3.3990    2.8520    1.6270 H   0  0  0  0  0  0  0  0  0  0  0  0
    4.7470    2.6610   -0.5140 H   0  0  0  0  0  0  0  0  0  0  0  0
    3.8530    4.1180   -1.2060 H   0  0  0  0  0  0  0  0  0  0  0  0
    4.6490    1.0650   -0.2790 H   0  0  0  0  0  0  0  0  0  0  0  0
    0.2100   -2.8340    0.2540 H   0  0  0  0  0  0  0  0  0  0  0  0
    6.2380   -3.2600    0.1890 H   0  0  0  0  0  0  0  0  0  0  0  0
  1  2  1  0  0  0  0
  2  3  1  0  0  0  0
  2 26  2  0  0  0  0
  3  4  1  0  0  0  0
  3 13  2  0  0  0  0
  4  5  1  0  0  0  0
  4 12  1  0  0  0  0
  5  6  1  0  0  0  0
  5 30  1  0  0  0  0
  5 31  1  0  0  0  0
  6  7  1  0  0  0  0
  6 11  1  0  0  0  0
  6 32  1  0  0  0  0
  7  8  1  0  0  0  0
  7 12  1  0  0  0  0
  7 33  1  0  0  0  0
  8  9  1  0  0  0  0
  8 34  1  0  0  0  0
  9 10  1  0  0  0  0
  9 35  1  0  0  0  0
  9 36  1  0  0  0  0
 10 11  1  0  0  0  0
 10 37  1  0  0  0  0
 10 38  1  0  0  0  0
 11 39  1  0  0  0  0
 11 40  1  0  0  0  0
 12 41  1  0  0  0  0
 12 42  1  0  0  0  0
 13 14  1  0  0  0  0
 13 16  1  0  0  0  0
 14 15  1  0  0  0  0
 15 43  1  0  0  0  0
 15 44  1  0  0  0  0
 15 45  1  0  0  0  0
 16 17  1  0  0  0  0
 16 25  2  0  0  0  0
 17 18  1  0  0  0  0
 17 21  1  0  0  0  0
 18 19  1  0  0  0  0
 18 20  1  0  0  0  0
 18 46  1  0  0  0  0
 19 20  1  0  0  0  0
 19 47  1  0  0  0  0
 19 48  1  0  0  0  0
 20 49  1  0  0  0  0
 20 50  1  0  0  0  0
 21 22  2  0  0  0  0
 21 51  1  0  0  0  0
 22 23  1  0  0  0  0
 22 27  1  0  0  0  0
 23 24  2  0  0  0  0
 23 25  1  0  0  0  0
 25 26  1  0  0  0  0
 26 52  1  0  0  0  0
 27 28  1  0  0  0  0
 27 29  2  0  0  0  0
 28 53  1  0  0  0  0
M  END
>  <UNIQUE_SMILES>
Fc1c(N2CC3NCCCC3C2)c(OC)c2N(C3CC3)C=C(C(=O)O)C(=O)c2c1

>  <USER_SUPPLIED_SMILES>
Fc1c(N2CC3NCCCC3C2)c(OC)c2N(C3CC3)C=C(C(=O)O)C(=O)c2c1

$$$$
C14H18N4O3
  MOE2018           3D

 39 40  0  0  0  0  0  0  0  0999 V2000
   -2.8480   -2.3900   -0.0710 O   0  0  0  0  0  0  0  0  0  0  0  0
   -2.0360   -3.4470    0.4440 C   0  0  0  0  0  0  0  0  0  0  0  0
   -2.2020   -1.2260    0.2090 C   0  0  0  0  0  0  0  0  0  0  0  0
   -0.9870   -1.2500    0.8770 C   0  0  0  0  0  0  0  0  0  0  0  0
   -0.3300   -0.0680    1.1620 C   0  0  0  0  0  0  0  0  0  0  0  0
   -0.8800    1.1420    0.7820 C   0  0  0  0  0  0  0  0  0  0  0  0
   -2.0940    1.1740    0.1130 C   0  0  0  0  0  0  0  0  0  0  0  0
   -2.6340    2.3650   -0.2610 O   0  0  0  0  0  0  0  0  0  0  0  0
   -1.7280    3.3830    0.1700 C   0  0  0  0  0  0  0  0  0  0  0  0
   -2.7560   -0.0120   -0.1800 C   0  0  0  0  0  0  0  0  0  0  0  0
   -3.9470    0.0150   -0.8370 O   0  0  0  0  0  0  0  0  0  0  0  0
   -3.6510   -0.0480   -2.2330 C   0  0  0  0  0  0  0  0  0  0  0  0
    0.9900   -0.0980    1.8890 C   0  0  0  0  0  0  0  0  0  0  0  0
    2.1130   -0.1890    0.8880 C   0  0  0  0  0  0  0  0  0  0  0  0
    2.6550   -1.4120    0.5430 C   0  0  0  0  0  0  0  0  0  0  0  0
    3.6410   -1.4580   -0.3400 N   0  0  0  0  0  0  0  0  0  0  0  0
    4.1110   -0.3500   -0.8950 C   0  0  0  0  0  0  0  0  0  0  0  0
    5.1420   -0.4400   -1.8140 N   0  0  0  0  0  0  0  0  0  0  0  0
    3.6190    0.8420   -0.5920 N   0  0  0  0  0  0  0  0  0  0  0  0
    2.6250    0.9610    0.2830 C   0  0  0  0  0  0  0  0  0  0  0  0
    2.1120    2.2090    0.5980 N   0  0  0  0  0  0  0  0  0  0  0  0
   -2.5160   -4.4050    0.2420 H   0  0  0  0  0  0  0  0  0  0  0  0
   -1.0590   -3.4220   -0.0380 H   0  0  0  0  0  0  0  0  0  0  0  0
   -1.9140   -3.3210    1.5190 H   0  0  0  0  0  0  0  0  0  0  0  0
   -0.5540   -2.1930    1.1760 H   0  0  0  0  0  0  0  0  0  0  0  0
   -0.3630    2.0630    1.0060 H   0  0  0  0  0  0  0  0  0  0  0  0
   -2.1210    4.3600   -0.1090 H   0  0  0  0  0  0  0  0  0  0  0  0
   -1.6140    3.3330    1.2530 H   0  0  0  0  0  0  0  0  0  0  0  0
   -0.7590    3.2310   -0.3050 H   0  0  0  0  0  0  0  0  0  0  0  0
   -4.5800   -0.0290   -2.8030 H   0  0  0  0  0  0  0  0  0  0  0  0
   -3.0360    0.8070   -2.5130 H   0  0  0  0  0  0  0  0  0  0  0  0
   -3.1120   -0.9700   -2.4490 H   0  0  0  0  0  0  0  0  0  0  0  0
    1.1010    0.8120    2.4780 H   0  0  0  0  0  0  0  0  0  0  0  0
    1.0210   -0.9650    2.5490 H   0  0  0  0  0  0  0  0  0  0  0  0
    2.2790   -2.3210    0.9890 H   0  0  0  0  0  0  0  0  0  0  0  0
    5.5110   -1.3070   -2.0450 H   0  0  0  0  0  0  0  0  0  0  0  0
    5.4950    0.3630   -2.2270 H   0  0  0  0  0  0  0  0  0  0  0  0
    2.4780    3.0030    0.1790 H   0  0  0  0  0  0  0  0  0  0  0  0
    1.3870    2.2880    1.2380 H   0  0  0  0  0  0  0  0  0  0  0  0
  1  2  1  0  0  0  0
  1  3  1  0  0  0  0
  2 22  1  0  0  0  0
  2 23  1  0  0  0  0
  2 24  1  0  0  0  0
  3  4  1  0  0  0  0
  3 10  2  0  0  0  0
  4  5  2  0  0  0  0
  4 25  1  0  0  0  0
  5  6  1  0  0  0  0
  5 13  1  0  0  0  0
  6  7  2  0  0  0  0
  6 26  1  0  0  0  0
  7  8  1  0  0  0  0
  7 10  1  0  0  0  0
  8  9  1  0  0  0  0
  9 27  1  0  0  0  0
  9 28  1  0  0  0  0
  9 29  1  0  0  0  0
 10 11  1  0  0  0  0
 11 12  1  0  0  0  0
 12 30  1  0  0  0  0
 12 31  1  0  0  0  0
 12 32  1  0  0  0  0
 13 14  1  0  0  0  0
 13 33  1  0  0  0  0
 13 34  1  0  0  0  0
 14 15  1  0  0  0  0
 14 20  2  0  0  0  0
 15 16  2  0  0  0  0
 15 35  1  0  0  0  0
 16 17  1  0  0  0  0
 17 18  1  0  0  0  0
 17 19  2  0  0  0  0
 18 36  1  0  0  0  0
 18 37  1  0  0  0  0
 19 20  1  0  0  0  0
 20 21  1  0  0  0  0
 21 38  1  0  0  0  0
 21 39  1  0  0  0  0
M  END
>  <UNIQUE_SMILES>
O(C)c1c(OC)cc(Cc2c(N)nc(N)nc2)cc1OC

>  <USER_SUPPLIED_SMILES>
O(C)c1c(OC)cc(Cc2c(N)nc(N)nc2)cc1OC

$$$$
C15H18O4
  MOE2018           3D

 37 39  0  0  1  0  0  0  0  0999 V2000
    3.8880   -1.3310   -0.5830 O   0  0  0  0  0  0  0  0  0  0  0  0
    3.0890   -0.7040    0.0870 C   0  0  0  0  0  0  0  0  0  0  0  0
    3.4270    0.5890    0.7470 C   0  0  0  0  0  0  0  0  0  0  0  0
    2.4780    1.5470    0.6510 C   0  0  0  0  0  0  0  0  0  0  0  0
    1.2390    1.1880   -0.1290 C   0  0  3  0  0  0  0  0  0  0  0  0
    1.7350    1.0490   -1.5700 C   0  0  0  0  0  0  0  0  0  0  0  0
    0.2310    2.3000   -0.1820 C   0  0  0  0  0  0  0  0  0  0  0  0
   -1.1820    1.9090    0.2710 C   0  0  3  0  0  0  0  0  0  0  0  0
   -2.1300    2.8650   -0.2090 O   0  0  0  0  0  0  0  0  0  0  0  0
   -1.4700    0.5620   -0.3180 C   0  0  3  0  0  0  0  0  0  0  0  0
   -0.6630   -0.4830    0.5110 C   0  0  3  0  0  0  0  0  0  0  0  0
   -1.1980   -1.7310    0.0040 O   0  0  0  0  0  0  0  0  0  0  0  0
   -2.4970   -1.5530   -0.3450 C   0  0  0  0  0  0  0  0  0  0  0  0
   -3.2560   -2.4280   -0.6880 O   0  0  0  0  0  0  0  0  0  0  0  0
   -2.8490   -0.0650   -0.2370 C   0  0  3  0  0  0  0  0  0  0  0  0
   -3.5200    0.2480    1.1020 C   0  0  0  0  0  0  0  0  0  0  0  0
    0.7660   -0.1870    0.2370 C   0  0  0  0  0  0  0  0  0  0  0  0
    1.6870   -1.1610    0.3120 C   0  0  0  0  0  0  0  0  0  0  0  0
    1.3360   -2.5990    0.5950 C   0  0  0  0  0  0  0  0  0  0  0  0
    4.3620    0.7490    1.2640 H   0  0  0  0  0  0  0  0  0  0  0  0
    2.6010    2.5170    1.1090 H   0  0  0  0  0  0  0  0  0  0  0  0
    2.4930    0.2670   -1.6200 H   0  0  0  0  0  0  0  0  0  0  0  0
    0.8990    0.7870   -2.2180 H   0  0  0  0  0  0  0  0  0  0  0  0
    2.1670    1.9950   -1.8980 H   0  0  0  0  0  0  0  0  0  0  0  0
    0.5830    3.1140    0.4520 H   0  0  0  0  0  0  0  0  0  0  0  0
    0.1760    2.6660   -1.2060 H   0  0  0  0  0  0  0  0  0  0  0  0
   -1.2230    1.8580    1.3590 H   0  0  0  0  0  0  0  0  0  0  0  0
   -1.8780    3.7200    0.1650 H   0  0  0  0  0  0  0  0  0  0  0  0
   -1.1350    0.5380   -1.3550 H   0  0  0  0  0  0  0  0  0  0  0  0
   -0.8810   -0.3790    1.5740 H   0  0  0  0  0  0  0  0  0  0  0  0
   -3.4750    0.2530   -1.0710 H   0  0  0  0  0  0  0  0  0  0  0  0
   -2.8520   -0.0340    1.9170 H   0  0  0  0  0  0  0  0  0  0  0  0
   -3.7340    1.3150    1.1610 H   0  0  0  0  0  0  0  0  0  0  0  0
   -4.4490   -0.3150    1.1830 H   0  0  0  0  0  0  0  0  0  0  0  0
    1.1510   -3.1190   -0.3450 H   0  0  0  0  0  0  0  0  0  0  0  0
    2.1640   -3.0780    1.1180 H   0  0  0  0  0  0  0  0  0  0  0  0
    0.4410   -2.6390    1.2150 H   0  0  0  0  0  0  0  0  0  0  0  0
  1  2  2  0  0  0  0
  2  3  1  0  0  0  0
  2 18  1  0  0  0  0
  3  4  2  0  0  0  0
  3 20  1  0  0  0  0
  4  5  1  0  0  0  0
  4 21  1  0  0  0  0
  5  6  1  0  0  0  0
  5  7  1  0  0  0  0
  5 17  1  0  0  0  0
  6 22  1  0  0  0  0
  6 23  1  0  0  0  0
  6 24  1  0  0  0  0
  7  8  1  0  0  0  0
  7 25  1  0  0  0  0
  7 26  1  0  0  0  0
  8  9  1  0  0  0  0
  8 10  1  0  0  0  0
  8 27  1  0  0  0  0
  9 28  1  0  0  0  0
 10 11  1  0  0  0  0
 10 15  1  0  0  0  0
 10 29  1  0  0  0  0
 11 12  1  0  0  0  0
 11 17  1  0  0  0  0
 11 30  1  0  0  0  0
 12 13  1  0  0  0  0
 13 14  2  0  0  0  0
 13 15  1  0  0  0  0
 15 16  1  0  0  0  0
 15 31  1  0  0  0  0
 16 32  1  0  0  0  0
 16 33  1  0  0  0  0
 16 34  1  0  0  0  0
 17 18  2  0  0  0  0
 18 19  1  0  0  0  0
 19 35  1  0  0  0  0
 19 36  1  0  0  0  0
 19 37  1  0  0  0  0
M  END
>  <UNIQUE_SMILES>
O=C1C(C)C2C(O)CC3(C)C(=C(C)C(=O)C=C3)C2O1

>  <USER_SUPPLIED_SMILES>
O=C1C(C)C2C(O)CC3(C)C(=C(C)C(=O)C=C3)C2O1

$$$$
C13H21N3O
  MOE2018           3D

 38 38  0  0  0  0  0  0  0  0999 V2000
   -0.6750   -1.9710   -0.7560 O   0  0  0  0  0  0  0  0  0  0  0  0
   -0.8780   -0.8470   -0.3390 C   0  0  0  0  0  0  0  0  0  0  0  0
    0.1600   -0.0340   -0.0600 N   0  0  0  0  0  0  0  0  0  0  0  0
    1.5330   -0.5040   -0.2610 C   0  0  0  0  0  0  0  0  0  0  0  0
    2.5130    0.6050    0.1270 C   0  0  0  0  0  0  0  0  0  0  0  0
    3.8900    0.1340   -0.0740 N   0  0  0  0  0  0  0  0  0  0  0  0
    4.7630    1.3050    0.0790 C   0  0  0  0  0  0  0  0  0  0  0  0
    4.6740    2.1750   -1.1760 C   0  0  0  0  0  0  0  0  0  0  0  0
    4.1940   -0.7690    1.0440 C   0  0  0  0  0  0  0  0  0  0  0  0
    5.4400   -1.5930    0.7090 C   0  0  0  0  0  0  0  0  0  0  0  0
   -2.2610   -0.3720   -0.1430 C   0  0  0  0  0  0  0  0  0  0  0  0
   -3.3390   -1.2120   -0.4360 C   0  0  0  0  0  0  0  0  0  0  0  0
   -4.6280   -0.7660   -0.2520 C   0  0  0  0  0  0  0  0  0  0  0  0
   -4.8580    0.5210    0.2260 C   0  0  0  0  0  0  0  0  0  0  0  0
   -6.1620    0.9690    0.4110 N   0  0  0  0  0  0  0  0  0  0  0  0
   -3.7870    1.3600    0.5200 C   0  0  0  0  0  0  0  0  0  0  0  0
   -2.4960    0.9180    0.3430 C   0  0  0  0  0  0  0  0  0  0  0  0
   -0.0020    0.8630    0.2730 H   0  0  0  0  0  0  0  0  0  0  0  0
    1.7110   -1.3810    0.3610 H   0  0  0  0  0  0  0  0  0  0  0  0
    1.6770   -0.7660   -1.3090 H   0  0  0  0  0  0  0  0  0  0  0  0
    2.3340    1.4820   -0.4950 H   0  0  0  0  0  0  0  0  0  0  0  0
    2.3680    0.8680    1.1750 H   0  0  0  0  0  0  0  0  0  0  0  0
    4.4460    1.8840    0.9460 H   0  0  0  0  0  0  0  0  0  0  0  0
    5.7920    0.9750    0.2190 H   0  0  0  0  0  0  0  0  0  0  0  0
    5.3960    2.9890   -1.1070 H   0  0  0  0  0  0  0  0  0  0  0  0
    4.8920    1.5690   -2.0550 H   0  0  0  0  0  0  0  0  0  0  0  0
    3.6680    2.5890   -1.2610 H   0  0  0  0  0  0  0  0  0  0  0  0
    4.3780   -0.1830    1.9450 H   0  0  0  0  0  0  0  0  0  0  0  0
    3.3500   -1.4380    1.2110 H   0  0  0  0  0  0  0  0  0  0  0  0
    5.6940   -2.2270    1.5580 H   0  0  0  0  0  0  0  0  0  0  0  0
    5.2390   -2.2160   -0.1630 H   0  0  0  0  0  0  0  0  0  0  0  0
    6.2720   -0.9230    0.4940 H   0  0  0  0  0  0  0  0  0  0  0  0
   -3.1600   -2.2110   -0.8080 H   0  0  0  0  0  0  0  0  0  0  0  0
   -5.4610   -1.4150   -0.4790 H   0  0  0  0  0  0  0  0  0  0  0  0
   -6.9090    0.3850    0.2070 H   0  0  0  0  0  0  0  0  0  0  0  0
   -6.3240    1.8660    0.7440 H   0  0  0  0  0  0  0  0  0  0  0  0
   -3.9700    2.3580    0.8900 H   0  0  0  0  0  0  0  0  0  0  0  0
   -1.6660    1.5690    0.5710 H   0  0  0  0  0  0  0  0  0  0  0  0
  1  2  2  0  0  0  0
  2  3  1  0  0  0  0
  2 11  1  0  0  0  0
  3  4  1  0  0  0  0
  3 18  1  0  0  0  0
  4  5  1  0  0  0  0
  4 19  1  0  0  0  0
  4 20  1  0  0  0  0
  5  6  1  0  0  0  0
  5 21  1  0  0  0  0
  5 22  1  0  0  0  0
  6  7  1  0  0  0  0
  6  9  1  0  0  0  0
  7  8  1  0  0  0  0
  7 23  1  0  0  0  0
  7 24  1  0  0  0  0
  8 25  1  0  0  0  0
  8 26  1  0  0  0  0
  8 27  1  0  0  0  0
  9 10  1  0  0  0  0
  9 28  1  0  0  0  0
  9 29  1  0  0  0  0
 10 30  1  0  0  0  0
 10 31  1  0  0  0  0
 10 32  1  0  0  0  0
 11 12  1  0  0  0  0
 11 17  2  0  0  0  0
 12 13  2  0  0  0  0
 12 33  1  0  0  0  0
 13 14  1  0  0  0  0
 13 34  1  0  0  0  0
 14 15  1  0  0  0  0
 14 16  2  0  0  0  0
 15 35  1  0  0  0  0
 15 36  1  0  0  0  0
 16 17  1  0  0  0  0
 16 37  1  0  0  0  0
 17 38  1  0  0  0  0
M  END
>  <UNIQUE_SMILES>
O=C(NCCN(CC)CC)c1ccc(N)cc1

>  <USER_SUPPLIED_SMILES>
O=C(NCCN(CC)CC)c1ccc(N)cc1

$$$$
C17H18FN3O3
  MOE2018           3D

 42 45  0  0  0  0  0  0  0  0999 V2000
    2.2600   -2.9140   -0.4720 F   0  0  0  0  0  0  0  0  0  0  0  0
    1.3790   -1.8970   -0.3520 C   0  0  0  0  0  0  0  0  0  0  0  0
    1.8370   -0.5770   -0.3390 C   0  0  0  0  0  0  0  0  0  0  0  0
    3.2010   -0.3180   -0.4500 N   0  0  0  0  0  0  0  0  0  0  0  0
    3.8320   -0.8570    0.7610 C   0  0  0  0  0  0  0  0  0  0  0  0
    5.3190   -0.5000    0.7680 C   0  0  0  0  0  0  0  0  0  0  0  0
    5.4770    0.9580    0.8180 N   0  0  0  0  0  0  0  0  0  0  0  0
    4.8460    1.4980   -0.3920 C   0  0  0  0  0  0  0  0  0  0  0  0
    3.3590    1.1410   -0.3990 C   0  0  0  0  0  0  0  0  0  0  0  0
    0.9450    0.4760   -0.2170 C   0  0  0  0  0  0  0  0  0  0  0  0
   -0.4170    0.2200   -0.1070 C   0  0  0  0  0  0  0  0  0  0  0  0
   -1.3160    1.2580    0.0150 N   0  0  0  0  0  0  0  0  0  0  0  0
   -0.8060    2.6310    0.0250 C   0  0  0  0  0  0  0  0  0  0  0  0
   -1.3890    3.6090   -0.9970 C   0  0  0  0  0  0  0  0  0  0  0  0
   -1.7620    3.7360    0.4810 C   0  0  0  0  0  0  0  0  0  0  0  0
   -2.6370    1.0630    0.1240 C   0  0  0  0  0  0  0  0  0  0  0  0
   -3.1970   -0.1980    0.1220 C   0  0  0  0  0  0  0  0  0  0  0  0
   -2.3130   -1.3690   -0.0030 C   0  0  0  0  0  0  0  0  0  0  0  0
   -2.7590   -2.5030   -0.0100 O   0  0  0  0  0  0  0  0  0  0  0  0
   -0.8680   -1.1120   -0.1210 C   0  0  0  0  0  0  0  0  0  0  0  0
    0.0430   -2.1640   -0.2500 C   0  0  0  0  0  0  0  0  0  0  0  0
   -4.6510   -0.3700    0.2440 C   0  0  0  0  0  0  0  0  0  0  0  0
   -5.1860   -1.6080    0.2420 O   0  0  0  0  0  0  0  0  0  0  0  0
   -5.3720    0.6030    0.3480 O   0  0  0  0  0  0  0  0  0  0  0  0
    3.3530   -0.4290    1.6420 H   0  0  0  0  0  0  0  0  0  0  0  0
    3.7190   -1.9410    0.7780 H   0  0  0  0  0  0  0  0  0  0  0  0
    5.7950   -0.9470    1.6410 H   0  0  0  0  0  0  0  0  0  0  0  0
    5.7880   -0.8850   -0.1380 H   0  0  0  0  0  0  0  0  0  0  0  0
    4.9280    1.2830    1.6000 H   0  0  0  0  0  0  0  0  0  0  0  0
    4.9590    2.5810   -0.4090 H   0  0  0  0  0  0  0  0  0  0  0  0
    5.3250    1.0700   -1.2730 H   0  0  0  0  0  0  0  0  0  0  0  0
    2.8820    1.5880   -1.2720 H   0  0  0  0  0  0  0  0  0  0  0  0
    2.8890    1.5260    0.5060 H   0  0  0  0  0  0  0  0  0  0  0  0
    1.3070    1.4940   -0.2080 H   0  0  0  0  0  0  0  0  0  0  0  0
    0.2480    2.7390    0.2820 H   0  0  0  0  0  0  0  0  0  0  0  0
   -0.7180    4.3600   -1.4140 H   0  0  0  0  0  0  0  0  0  0  0  0
   -2.1510    3.2300   -1.6780 H   0  0  0  0  0  0  0  0  0  0  0  0
   -2.7700    3.4410    0.7730 H   0  0  0  0  0  0  0  0  0  0  0  0
   -1.3360    4.5710    1.0380 H   0  0  0  0  0  0  0  0  0  0  0  0
   -3.2860    1.9220    0.2160 H   0  0  0  0  0  0  0  0  0  0  0  0
   -0.3070   -3.1860   -0.2640 H   0  0  0  0  0  0  0  0  0  0  0  0
   -6.1430   -1.7210    0.3220 H   0  0  0  0  0  0  0  0  0  0  0  0
  1  2  1  0  0  0  0
  2  3  1  0  0  0  0
  2 21  2  0  0  0  0
  3  4  1  0  0  0  0
  3 10  2  0  0  0  0
  4  5  1  0  0  0  0
  4  9  1  0  0  0  0
  5  6  1  0  0  0  0
  5 25  1  0  0  0  0
  5 26  1  0  0  0  0
  6  7  1  0  0  0  0
  6 27  1  0  0  0  0
  6 28  1  0  0  0  0
  7  8  1  0  0  0  0
  7 29  1  0  0  0  0
  8  9  1  0  0  0  0
  8 30  1  0  0  0  0
  8 31  1  0  0  0  0
  9 32  1  0  0  0  0
  9 33  1  0  0  0  0
 10 11  1  0  0  0  0
 10 34  1  0  0  0  0
 11 12  1  0  0  0  0
 11 20  2  0  0  0  0
 12 13  1  0  0  0  0
 12 16  1  0  0  0  0
 13 14  1  0  0  0  0
 13 15  1  0  0  0  0
 13 35  1  0  0  0  0
 14 15  1  0  0  0  0
 14 36  1  0  0  0  0
 14 37  1  0  0  0  0
 15 38  1  0  0  0  0
 15 39  1  0  0  0  0
 16 17  2  0  0  0  0
 16 40  1  0  0  0  0
 17 18  1  0  0  0  0
 17 22  1  0  0  0  0
 18 19  2  0  0  0  0
 18 20  1  0  0  0  0
 20 21  1  0  0  0  0
 21 41  1  0  0  0  0
 22 23  1  0  0  0  0
 22 24  2  0  0  0  0
 23 42  1  0  0  0  0
M  END
>  <UNIQUE_SMILES>
Fc1c(N2CCNCC2)cc2N(C3CC3)C=C(C(=O)O)C(=O)c2c1

>  <USER_SUPPLIED_SMILES>
Fc1c(N2CCNCC2)cc2N(C3CC3)C=C(C(=O)O)C(=O)c2c1

$$$$
C10H14N2
  MOE2018           3D

 26 27  0  0  1  0  0  0  0  0999 V2000
    0.8070    0.0980    0.6570 C   0  0  3  0  0  0  0  0  0  0  0  0
    1.3520   -1.3240    0.8880 C   0  0  0  0  0  0  0  0  0  0  0  0
    2.4970   -1.4890   -0.1370 C   0  0  0  0  0  0  0  0  0  0  0  0
    2.8880   -0.0250   -0.4590 C   0  0  0  0  0  0  0  0  0  0  0  0
    1.5830    0.6840   -0.4580 N   0  0  0  0  0  0  0  0  0  0  0  0
    1.8600    2.0790   -0.0910 C   0  0  0  0  0  0  0  0  0  0  0  0
   -0.6530    0.0340    0.2880 C   0  0  0  0  0  0  0  0  0  0  0  0
   -1.0360   -0.2760   -1.0030 C   0  0  0  0  0  0  0  0  0  0  0  0
   -2.3110   -0.3330   -1.3330 N   0  0  0  0  0  0  0  0  0  0  0  0
   -3.2660   -0.1000   -0.4540 C   0  0  0  0  0  0  0  0  0  0  0  0
   -2.9590    0.2160    0.8560 C   0  0  0  0  0  0  0  0  0  0  0  0
   -1.6290    0.2800    1.2420 C   0  0  0  0  0  0  0  0  0  0  0  0
    0.9400    0.6970    1.5570 H   0  0  0  0  0  0  0  0  0  0  0  0
    1.7370   -1.4210    1.9040 H   0  0  0  0  0  0  0  0  0  0  0  0
    0.5720   -2.0630    0.7060 H   0  0  0  0  0  0  0  0  0  0  0  0
    3.3370   -2.0250    0.3050 H   0  0  0  0  0  0  0  0  0  0  0  0
    2.1420   -1.9990   -1.0330 H   0  0  0  0  0  0  0  0  0  0  0  0
    3.5450    0.3760    0.3130 H   0  0  0  0  0  0  0  0  0  0  0  0
    3.3610    0.0400   -1.4390 H   0  0  0  0  0  0  0  0  0  0  0  0
    2.6040    2.4930   -0.7730 H   0  0  0  0  0  0  0  0  0  0  0  0
    0.9420    2.6620   -0.1580 H   0  0  0  0  0  0  0  0  0  0  0  0
    2.2420    2.1180    0.9290 H   0  0  0  0  0  0  0  0  0  0  0  0
   -0.2820   -0.4730   -1.7510 H   0  0  0  0  0  0  0  0  0  0  0  0
   -4.3000   -0.1560   -0.7620 H   0  0  0  0  0  0  0  0  0  0  0  0
   -3.7460    0.4060    1.5710 H   0  0  0  0  0  0  0  0  0  0  0  0
   -1.3590    0.5240    2.2580 H   0  0  0  0  0  0  0  0  0  0  0  0
  1  2  1  0  0  0  0
  1  5  1  0  0  0  0
  1  7  1  0  0  0  0
  1 13  1  0  0  0  0
  2  3  1  0  0  0  0
  2 14  1  0  0  0  0
  2 15  1  0  0  0  0
  3  4  1  0  0  0  0
  3 16  1  0  0  0  0
  3 17  1  0  0  0  0
  4  5  1  0  0  0  0
  4 18  1  0  0  0  0
  4 19  1  0  0  0  0
  5  6  1  0  0  0  0
  6 20  1  0  0  0  0
  6 21  1  0  0  0  0
  6 22  1  0  0  0  0
  7  8  1  0  0  0  0
  7 12  2  0  0  0  0
  8  9  2  0  0  0  0
  8 23  1  0  0  0  0
  9 10  1  0  0  0  0
 10 11  2  0  0  0  0
 10 24  1  0  0  0  0
 11 12  1  0  0  0  0
 11 25  1  0  0  0  0
 12 26  1  0  0  0  0
M  END
>  <UNIQUE_SMILES>
CN1C(c2cnccc2)CCC1

>  <USER_SUPPLIED_SMILES>
CN1C(c2cnccc2)CCC1

$$$$
C19H22FN3O4
  MOE2018           3D

 49 52  0  0  1  0  0  0  0  0999 V2000
   -2.2770   -2.4140   -0.0590 F   0  0  0  0  0  0  0  0  0  0  0  0
   -1.2410   -1.5490   -0.1040 C   0  0  0  0  0  0  0  0  0  0  0  0
   -1.4830   -0.1840   -0.2680 C   0  0  0  0  0  0  0  0  0  0  0  0
   -2.7950    0.2780   -0.3860 N   0  0  0  0  0  0  0  0  0  0  0  0
   -3.4900   -0.1090    0.8480 C   0  0  0  0  0  0  0  0  0  0  0  0
   -4.9710    0.2580    0.7410 C   0  0  3  0  0  0  0  0  0  0  0  0
   -5.5890   -0.5020   -0.3530 N   0  0  0  0  0  0  0  0  0  0  0  0
   -4.8940   -0.1160   -1.5870 C   0  0  0  0  0  0  0  0  0  0  0  0
   -3.4130   -0.4820   -1.4790 C   0  0  0  0  0  0  0  0  0  0  0  0
   -5.6760   -0.0780    2.0560 C   0  0  0  0  0  0  0  0  0  0  0  0
   -0.4280    0.7180   -0.3150 C   0  0  0  0  0  0  0  0  0  0  0  0
   -0.6730    2.0470   -0.4760 O   0  0  0  0  0  0  0  0  0  0  0  0
   -0.9680    2.5720    0.8200 C   0  0  0  0  0  0  0  0  0  0  0  0
    0.8820    0.2570   -0.1980 C   0  0  0  0  0  0  0  0  0  0  0  0
    1.9420    1.1400   -0.2420 N   0  0  0  0  0  0  0  0  0  0  0  0
    1.6610    2.5670   -0.4150 C   0  0  0  0  0  0  0  0  0  0  0  0
    1.9680    3.4960    0.7610 C   0  0  0  0  0  0  0  0  0  0  0  0
    2.8560    3.5190   -0.4850 C   0  0  0  0  0  0  0  0  0  0  0  0
    3.2170    0.7460   -0.1320 C   0  0  0  0  0  0  0  0  0  0  0  0
    3.5660   -0.5790    0.0330 C   0  0  0  0  0  0  0  0  0  0  0  0
    2.5010   -1.5940    0.0910 C   0  0  0  0  0  0  0  0  0  0  0  0
    2.7580   -2.7770    0.2360 O   0  0  0  0  0  0  0  0  0  0  0  0
    1.1120   -1.1210   -0.0320 C   0  0  0  0  0  0  0  0  0  0  0  0
    0.0390   -2.0140    0.0190 C   0  0  0  0  0  0  0  0  0  0  0  0
    4.9770   -0.9710    0.1480 C   0  0  0  0  0  0  0  0  0  0  0  0
    5.3050   -2.2690    0.3090 O   0  0  0  0  0  0  0  0  0  0  0  0
    5.8490   -0.1250    0.0980 O   0  0  0  0  0  0  0  0  0  0  0  0
   -3.3930   -1.1840    0.9990 H   0  0  0  0  0  0  0  0  0  0  0  0
   -3.0470    0.4170    1.6940 H   0  0  0  0  0  0  0  0  0  0  0  0
   -5.0670    1.3250    0.5400 H   0  0  0  0  0  0  0  0  0  0  0  0
   -5.3720   -1.4740   -0.1890 H   0  0  0  0  0  0  0  0  0  0  0  0
   -5.3370   -0.6420   -2.4320 H   0  0  0  0  0  0  0  0  0  0  0  0
   -4.9920    0.9590   -1.7370 H   0  0  0  0  0  0  0  0  0  0  0  0
   -2.9110   -0.2430   -2.4160 H   0  0  0  0  0  0  0  0  0  0  0  0
   -3.3170   -1.5500   -1.2780 H   0  0  0  0  0  0  0  0  0  0  0  0
   -5.2190    0.4880    2.8680 H   0  0  0  0  0  0  0  0  0  0  0  0
   -6.7310    0.1830    1.9800 H   0  0  0  0  0  0  0  0  0  0  0  0
   -5.5790   -1.1450    2.2590 H   0  0  0  0  0  0  0  0  0  0  0  0
   -1.1500    3.6440    0.7450 H   0  0  0  0  0  0  0  0  0  0  0  0
   -1.8560    2.0800    1.2180 H   0  0  0  0  0  0  0  0  0  0  0  0
   -0.1250    2.3920    1.4860 H   0  0  0  0  0  0  0  0  0  0  0  0
    0.7920    2.8030   -1.0300 H   0  0  0  0  0  0  0  0  0  0  0  0
    1.3020    4.3430    0.9200 H   0  0  0  0  0  0  0  0  0  0  0  0
    2.3800    3.0450    1.6640 H   0  0  0  0  0  0  0  0  0  0  0  0
    3.8520    3.0840   -0.4010 H   0  0  0  0  0  0  0  0  0  0  0  0
    2.7740    4.3830   -1.1450 H   0  0  0  0  0  0  0  0  0  0  0  0
    3.9990    1.4900   -0.1750 H   0  0  0  0  0  0  0  0  0  0  0  0
    0.2200   -3.0700    0.1510 H   0  0  0  0  0  0  0  0  0  0  0  0
    6.2340   -2.5270    0.3850 H   0  0  0  0  0  0  0  0  0  0  0  0
  1  2  1  0  0  0  0
  2  3  1  0  0  0  0
  2 24  2  0  0  0  0
  3  4  1  0  0  0  0
  3 11  2  0  0  0  0
  4  5  1  0  0  0  0
  4  9  1  0  0  0  0
  5  6  1  0  0  0  0
  5 28  1  0  0  0  0
  5 29  1  0  0  0  0
  6  7  1  0  0  0  0
  6 10  1  0  0  0  0
  6 30  1  0  0  0  0
  7  8  1  0  0  0  0
  7 31  1  0  0  0  0
  8  9  1  0  0  0  0
  8 32  1  0  0  0  0
  8 33  1  0  0  0  0
  9 34  1  0  0  0  0
  9 35  1  0  0  0  0
 10 36  1  0  0  0  0
 10 37  1  0  0  0  0
 10 38  1  0  0  0  0
 11 12  1  0  0  0  0
 11 14  1  0  0  0  0
 12 13  1  0  0  0  0
 13 39  1  0  0  0  0
 13 40  1  0  0  0  0
 13 41  1  0  0  0  0
 14 15  1  0  0  0  0
 14 23  2  0  0  0  0
 15 16  1  0  0  0  0
 15 19  1  0  0  0  0
 16 17  1  0  0  0  0
 16 18  1  0  0  0  0
 16 42  1  0  0  0  0
 17 18  1  0  0  0  0
 17 43  1  0  0  0  0
 17 44  1  0  0  0  0
 18 45  1  0  0  0  0
 18 46  1  0  0  0  0
 19 20  2  0  0  0  0
 19 47  1  0  0  0  0
 20 21  1  0  0  0  0
 20 25  1  0  0  0  0
 21 22  2  0  0  0  0
 21 23  1  0  0  0  0
 23 24  1  0  0  0  0
 24 48  1  0  0  0  0
 25 26  1  0  0  0  0
 25 27  2  0  0  0  0
 26 49  1  0  0  0  0
M  END
>  <UNIQUE_SMILES>
Fc1c(N2CC(C)NCC2)c(OC)c2N(C3CC3)C=C(C(=O)O)C(=O)c2c1

>  <USER_SUPPLIED_SMILES>
Fc1c(N2CC(C)NCC2)c(OC)c2N(C3CC3)C=C(C(=O)O)C(=O)c2c1

$$$$
C22H26N2O4S
  MOE2018           3D

 55 57  0  0  1  0  0  0  0  0999 V2000
   -3.0050    3.7640    0.4770 C   0  0  0  0  0  0  0  0  0  0  0  0
   -3.8400    2.6780    0.6630 C   0  0  0  0  0  0  0  0  0  0  0  0
   -3.4140    1.4050    0.3260 C   0  0  0  0  0  0  0  0  0  0  0  0
   -2.1460    1.2230   -0.2000 C   0  0  0  0  0  0  0  0  0  0  0  0
   -1.3110    2.3170   -0.4040 C   0  0  0  0  0  0  0  0  0  0  0  0
   -1.7410    3.5890   -0.0550 C   0  0  0  0  0  0  0  0  0  0  0  0
    0.2820    2.0850   -1.1210 S   0  0  0  0  0  0  0  0  0  0  0  0
    1.1690    1.3720    0.3020 C   0  0  3  0  0  0  0  0  0  0  0  0
    0.2300    0.3660    0.9830 C   0  0  3  0  0  0  0  0  0  0  0  0
   -0.4940   -0.4600   -0.0380 C   0  0  0  0  0  0  0  0  0  0  0  0
   -1.6850   -0.0690   -0.5090 N   0  0  0  0  0  0  0  0  0  0  0  0
   -2.4940   -0.9720   -1.3310 C   0  0  0  0  0  0  0  0  0  0  0  0
   -3.4140   -1.7970   -0.4290 C   0  0  0  0  0  0  0  0  0  0  0  0
   -4.2250   -2.7020   -1.2530 N   0  0  0  0  0  0  0  0  0  0  0  0
   -4.8980   -3.6250   -0.3300 C   0  0  0  0  0  0  0  0  0  0  0  0
   -5.2760   -1.8830   -1.8720 C   0  0  0  0  0  0  0  0  0  0  0  0
    0.0030   -1.4900   -0.4400 O   0  0  0  0  0  0  0  0  0  0  0  0
    1.0090   -0.5100    1.8410 O   0  0  0  0  0  0  0  0  0  0  0  0
    0.4550   -1.0320    2.9460 C   0  0  0  0  0  0  0  0  0  0  0  0
   -0.6910   -0.7740    3.2270 O   0  0  0  0  0  0  0  0  0  0  0  0
    1.2630   -1.9410    3.8360 C   0  0  0  0  0  0  0  0  0  0  0  0
    2.4140    0.6670   -0.1740 C   0  0  0  0  0  0  0  0  0  0  0  0
    2.3460   -0.2040   -1.2460 C   0  0  0  0  0  0  0  0  0  0  0  0
    3.4860   -0.8510   -1.6830 C   0  0  0  0  0  0  0  0  0  0  0  0
    4.6980   -0.6260   -1.0470 C   0  0  0  0  0  0  0  0  0  0  0  0
    5.8200   -1.2620   -1.4760 O   0  0  0  0  0  0  0  0  0  0  0  0
    6.8880   -0.8280   -0.6320 C   0  0  0  0  0  0  0  0  0  0  0  0
    4.7620    0.2490    0.0270 C   0  0  0  0  0  0  0  0  0  0  0  0
    3.6210    0.8980    0.4580 C   0  0  0  0  0  0  0  0  0  0  0  0
   -3.3440    4.7540    0.7440 H   0  0  0  0  0  0  0  0  0  0  0  0
   -4.8290    2.8230    1.0730 H   0  0  0  0  0  0  0  0  0  0  0  0
   -4.0670    0.5580    0.4720 H   0  0  0  0  0  0  0  0  0  0  0  0
   -1.0910    4.4400   -0.1990 H   0  0  0  0  0  0  0  0  0  0  0  0
    1.4360    2.1610    1.0040 H   0  0  0  0  0  0  0  0  0  0  0  0
   -0.4970    0.9070    1.5890 H   0  0  0  0  0  0  0  0  0  0  0  0
   -3.0960   -0.3880   -2.0270 H   0  0  0  0  0  0  0  0  0  0  0  0
   -1.8390   -1.6400   -1.8900 H   0  0  0  0  0  0  0  0  0  0  0  0
   -2.8110   -2.3810    0.2670 H   0  0  0  0  0  0  0  0  0  0  0  0
   -4.0690   -1.1290    0.1300 H   0  0  0  0  0  0  0  0  0  0  0  0
   -5.5270   -3.0580    0.3570 H   0  0  0  0  0  0  0  0  0  0  0  0
   -5.5160   -4.3210   -0.8970 H   0  0  0  0  0  0  0  0  0  0  0  0
   -4.1520   -4.1810    0.2370 H   0  0  0  0  0  0  0  0  0  0  0  0
   -5.9080   -2.5140   -2.4970 H   0  0  0  0  0  0  0  0  0  0  0  0
   -5.8820   -1.4200   -1.0930 H   0  0  0  0  0  0  0  0  0  0  0  0
   -4.8170   -1.1070   -2.4840 H   0  0  0  0  0  0  0  0  0  0  0  0
    1.7740   -1.3470    4.5940 H   0  0  0  0  0  0  0  0  0  0  0  0
    0.6000   -2.6570    4.3220 H   0  0  0  0  0  0  0  0  0  0  0  0
    1.9990   -2.4760    3.2370 H   0  0  0  0  0  0  0  0  0  0  0  0
    1.4030   -0.3790   -1.7410 H   0  0  0  0  0  0  0  0  0  0  0  0
    3.4330   -1.5320   -2.5200 H   0  0  0  0  0  0  0  0  0  0  0  0
    7.8140   -1.3140   -0.9400 H   0  0  0  0  0  0  0  0  0  0  0  0
    7.0000    0.2530   -0.7140 H   0  0  0  0  0  0  0  0  0  0  0  0
    6.6650   -1.0930    0.4020 H   0  0  0  0  0  0  0  0  0  0  0  0
    5.7050    0.4250    0.5250 H   0  0  0  0  0  0  0  0  0  0  0  0
    3.6710    1.5790    1.2940 H   0  0  0  0  0  0  0  0  0  0  0  0
  1  2  1  0  0  0  0
  1  6  2  0  0  0  0
  1 30  1  0  0  0  0
  2  3  2  0  0  0  0
  2 31  1  0  0  0  0
  3  4  1  0  0  0  0
  3 32  1  0  0  0  0
  4  5  2  0  0  0  0
  4 11  1  0  0  0  0
  5  6  1  0  0  0  0
  5  7  1  0  0  0  0
  6 33  1  0  0  0  0
  7  8  1  0  0  0  0
  8  9  1  0  0  0  0
  8 22  1  0  0  0  0
  8 34  1  0  0  0  0
  9 10  1  0  0  0  0
  9 18  1  0  0  0  0
  9 35  1  0  0  0  0
 10 11  1  0  0  0  0
 10 17  2  0  0  0  0
 11 12  1  0  0  0  0
 12 13  1  0  0  0  0
 12 36  1  0  0  0  0
 12 37  1  0  0  0  0
 13 14  1  0  0  0  0
 13 38  1  0  0  0  0
 13 39  1  0  0  0  0
 14 15  1  0  0  0  0
 14 16  1  0  0  0  0
 15 40  1  0  0  0  0
 15 41  1  0  0  0  0
 15 42  1  0  0  0  0
 16 43  1  0  0  0  0
 16 44  1  0  0  0  0
 16 45  1  0  0  0  0
 18 19  1  0  0  0  0
 19 20  2  0  0  0  0
 19 21  1  0  0  0  0
 21 46  1  0  0  0  0
 21 47  1  0  0  0  0
 21 48  1  0  0  0  0
 22 23  1  0  0  0  0
 22 29  2  0  0  0  0
 23 24  2  0  0  0  0
 23 49  1  0  0  0  0
 24 25  1  0  0  0  0
 24 50  1  0  0  0  0
 25 26  1  0  0  0  0
 25 28  2  0  0  0  0
 26 27  1  0  0  0  0
 27 51  1  0  0  0  0
 27 52  1  0  0  0  0
 27 53  1  0  0  0  0
 28 29  1  0  0  0  0
 28 54  1  0  0  0  0
 29 55  1  0  0  0  0
M  END
>  <UNIQUE_SMILES>
O=C(OC1C(=O)N(CCN(C)C)c2c(SC1c1ccc(OC)cc1)cccc2)C

>  <USER_SUPPLIED_SMILES>
O=C(OC1C(=O)N(CCN(C)C)c2c(SC1c1ccc(OC)cc1)cccc2)C

$$$$
C32H39NO4
  MOE2018           3D

 76 79  0  0  1  0  0  0  0  0999 V2000
    5.4500   -0.0160    1.9640 O   0  0  0  0  0  0  0  0  0  0  0  0
    5.5080   -0.0250    0.5360 C   0  0  0  0  0  0  0  0  0  0  0  0
    6.0090    1.3100    0.0460 C   0  0  0  0  0  0  0  0  0  0  0  0
    6.8780    2.0510    0.8250 C   0  0  0  0  0  0  0  0  0  0  0  0
    7.3370    3.2750    0.3760 C   0  0  0  0  0  0  0  0  0  0  0  0
    6.9270    3.7580   -0.8530 C   0  0  0  0  0  0  0  0  0  0  0  0
    6.0590    3.0170   -1.6320 C   0  0  0  0  0  0  0  0  0  0  0  0
    5.6030    1.7910   -1.1850 C   0  0  0  0  0  0  0  0  0  0  0  0
    6.4460   -1.1120    0.0780 C   0  0  0  0  0  0  0  0  0  0  0  0
    7.5160   -1.4820    0.8720 C   0  0  0  0  0  0  0  0  0  0  0  0
    8.3760   -2.4790    0.4520 C   0  0  0  0  0  0  0  0  0  0  0  0
    8.1670   -3.1060   -0.7620 C   0  0  0  0  0  0  0  0  0  0  0  0
    7.0970   -2.7370   -1.5560 C   0  0  0  0  0  0  0  0  0  0  0  0
    6.2340   -1.7430   -1.1340 C   0  0  0  0  0  0  0  0  0  0  0  0
    4.1110   -0.2840   -0.0310 C   0  0  0  0  0  0  0  0  0  0  0  0
    3.6000   -1.6410    0.4660 C   0  0  0  0  0  0  0  0  0  0  0  0
    2.1610   -1.8410   -0.0110 C   0  0  0  0  0  0  0  0  0  0  0  0
    1.3020   -0.7920    0.5490 N   0  0  0  0  0  0  0  0  0  0  0  0
   -0.0550   -1.0440    0.0450 C   0  0  0  0  0  0  0  0  0  0  0  0
   -0.9890    0.0730    0.5150 C   0  0  0  0  0  0  0  0  0  0  0  0
   -2.4260   -0.2590    0.1080 C   0  0  0  0  0  0  0  0  0  0  0  0
   -3.3600    0.8580    0.5780 C   0  0  3  0  0  0  0  0  0  0  0  0
   -3.0410    2.0680   -0.1120 O   0  0  0  0  0  0  0  0  0  0  0  0
   -4.7880    0.4750    0.2860 C   0  0  0  0  0  0  0  0  0  0  0  0
   -5.5870   -0.0330    1.2940 C   0  0  0  0  0  0  0  0  0  0  0  0
   -6.8970   -0.3850    1.0260 C   0  0  0  0  0  0  0  0  0  0  0  0
   -7.4080   -0.2280   -0.2480 C   0  0  0  0  0  0  0  0  0  0  0  0
   -8.8360   -0.6120   -0.5400 C   0  0  0  0  0  0  0  0  0  0  0  0
   -9.1460   -0.3410   -2.0140 C   0  0  0  0  0  0  0  0  0  0  0  0
   -9.0350   -2.0990   -0.2420 C   0  0  0  0  0  0  0  0  0  0  0  0
   -9.7620    0.2030    0.3260 C   0  0  0  0  0  0  0  0  0  0  0  0
  -11.0900    0.0290    0.2370 O   0  0  0  0  0  0  0  0  0  0  0  0
   -9.3090    1.0120    1.1010 O   0  0  0  0  0  0  0  0  0  0  0  0
   -6.6090    0.2810   -1.2560 C   0  0  0  0  0  0  0  0  0  0  0  0
   -5.3010    0.6360   -0.9870 C   0  0  0  0  0  0  0  0  0  0  0  0
    1.7360    0.4830   -0.0310 C   0  0  0  0  0  0  0  0  0  0  0  0
    3.1530    0.8120    0.4450 C   0  0  0  0  0  0  0  0  0  0  0  0
    4.8410    0.6920    2.2140 H   0  0  0  0  0  0  0  0  0  0  0  0
    7.1980    1.6730    1.7850 H   0  0  0  0  0  0  0  0  0  0  0  0
    8.0150    3.8540    0.9850 H   0  0  0  0  0  0  0  0  0  0  0  0
    7.2850    4.7140   -1.2030 H   0  0  0  0  0  0  0  0  0  0  0  0
    5.7390    3.3940   -2.5920 H   0  0  0  0  0  0  0  0  0  0  0  0
    4.9250    1.2120   -1.7940 H   0  0  0  0  0  0  0  0  0  0  0  0
    7.6800   -0.9910    1.8200 H   0  0  0  0  0  0  0  0  0  0  0  0
    9.2120   -2.7670    1.0720 H   0  0  0  0  0  0  0  0  0  0  0  0
    8.8390   -3.8850   -1.0910 H   0  0  0  0  0  0  0  0  0  0  0  0
    6.9330   -3.2270   -2.5040 H   0  0  0  0  0  0  0  0  0  0  0  0
    5.3980   -1.4540   -1.7530 H   0  0  0  0  0  0  0  0  0  0  0  0
    4.1540   -0.2870   -1.1200 H   0  0  0  0  0  0  0  0  0  0  0  0
    4.2300   -2.4360    0.0670 H   0  0  0  0  0  0  0  0  0  0  0  0
    3.6300   -1.6640    1.5550 H   0  0  0  0  0  0  0  0  0  0  0  0
    2.1290   -1.7930   -1.0990 H   0  0  0  0  0  0  0  0  0  0  0  0
    1.8020   -2.8170    0.3180 H   0  0  0  0  0  0  0  0  0  0  0  0
   -0.0390   -1.0700   -1.0440 H   0  0  0  0  0  0  0  0  0  0  0  0
   -0.4120   -2.0010    0.4270 H   0  0  0  0  0  0  0  0  0  0  0  0
   -0.9300    0.1630    1.6000 H   0  0  0  0  0  0  0  0  0  0  0  0
   -0.6890    1.0140    0.0560 H   0  0  0  0  0  0  0  0  0  0  0  0
   -2.4850   -0.3490   -0.9770 H   0  0  0  0  0  0  0  0  0  0  0  0
   -2.7260   -1.2010    0.5680 H   0  0  0  0  0  0  0  0  0  0  0  0
   -3.2360    1.0080    1.6510 H   0  0  0  0  0  0  0  0  0  0  0  0
   -3.1640    1.8920   -1.0550 H   0  0  0  0  0  0  0  0  0  0  0  0
   -5.1880   -0.1550    2.2900 H   0  0  0  0  0  0  0  0  0  0  0  0
   -7.5210   -0.7820    1.8130 H   0  0  0  0  0  0  0  0  0  0  0  0
   -8.4760   -0.9300   -2.6400 H   0  0  0  0  0  0  0  0  0  0  0  0
  -10.1780   -0.6180   -2.2250 H   0  0  0  0  0  0  0  0  0  0  0  0
   -9.0040    0.7190   -2.2260 H   0  0  0  0  0  0  0  0  0  0  0  0
   -8.8140   -2.2920    0.8080 H   0  0  0  0  0  0  0  0  0  0  0  0
  -10.0680   -2.3770   -0.4530 H   0  0  0  0  0  0  0  0  0  0  0  0
   -8.3650   -2.6880   -0.8690 H   0  0  0  0  0  0  0  0  0  0  0  0
  -11.6840    0.5520    0.7920 H   0  0  0  0  0  0  0  0  0  0  0  0
   -7.0090    0.4040   -2.2510 H   0  0  0  0  0  0  0  0  0  0  0  0
   -4.6770    1.0340   -1.7740 H   0  0  0  0  0  0  0  0  0  0  0  0
    1.7270    0.4090   -1.1180 H   0  0  0  0  0  0  0  0  0  0  0  0
    1.0560    1.2740    0.2830 H   0  0  0  0  0  0  0  0  0  0  0  0
    3.1690    0.8620    1.5340 H   0  0  0  0  0  0  0  0  0  0  0  0
    3.4630    1.7710    0.0300 H   0  0  0  0  0  0  0  0  0  0  0  0
  1  2  1  0  0  0  0
  1 38  1  0  0  0  0
  2  3  1  0  0  0  0
  2  9  1  0  0  0  0
  2 15  1  0  0  0  0
  3  4  1  0  0  0  0
  3  8  2  0  0  0  0
  4  5  2  0  0  0  0
  4 39  1  0  0  0  0
  5  6  1  0  0  0  0
  5 40  1  0  0  0  0
  6  7  2  0  0  0  0
  6 41  1  0  0  0  0
  7  8  1  0  0  0  0
  7 42  1  0  0  0  0
  8 43  1  0  0  0  0
  9 10  1  0  0  0  0
  9 14  2  0  0  0  0
 10 11  2  0  0  0  0
 10 44  1  0  0  0  0
 11 12  1  0  0  0  0
 11 45  1  0  0  0  0
 12 13  2  0  0  0  0
 12 46  1  0  0  0  0
 13 14  1  0  0  0  0
 13 47  1  0  0  0  0
 14 48  1  0  0  0  0
 15 16  1  0  0  0  0
 15 37  1  0  0  0  0
 15 49  1  0  0  0  0
 16 17  1  0  0  0  0
 16 50  1  0  0  0  0
 16 51  1  0  0  0  0
 17 18  1  0  0  0  0
 17 52  1  0  0  0  0
 17 53  1  0  0  0  0
 18 19  1  0  0  0  0
 18 36  1  0  0  0  0
 19 20  1  0  0  0  0
 19 54  1  0  0  0  0
 19 55  1  0  0  0  0
 20 21  1  0  0  0  0
 20 56  1  0  0  0  0
 20 57  1  0  0  0  0
 21 22  1  0  0  0  0
 21 58  1  0  0  0  0
 21 59  1  0  0  0  0
 22 23  1  0  0  0  0
 22 24  1  0  0  0  0
 22 60  1  0  0  0  0
 23 61  1  0  0  0  0
 24 25  1  0  0  0  0
 24 35  2  0  0  0  0
 25 26  2  0  0  0  0
 25 62  1  0  0  0  0
 26 27  1  0  0  0  0
 26 63  1  0  0  0  0
 27 28  1  0  0  0  0
 27 34  2  0  0  0  0
 28 29  1  0  0  0  0
 28 30  1  0  0  0  0
 28 31  1  0  0  0  0
 29 64  1  0  0  0  0
 29 65  1  0  0  0  0
 29 66  1  0  0  0  0
 30 67  1  0  0  0  0
 30 68  1  0  0  0  0
 30 69  1  0  0  0  0
 31 32  1  0  0  0  0
 31 33  2  0  0  0  0
 32 70  1  0  0  0  0
 34 35  1  0  0  0  0
 34 71  1  0  0  0  0
 35 72  1  0  0  0  0
 36 37  1  0  0  0  0
 36 73  1  0  0  0  0
 36 74  1  0  0  0  0
 37 75  1  0  0  0  0
 37 76  1  0  0  0  0
M  END
>  <UNIQUE_SMILES>
O=C(O)C(C)(C)c1ccc(C(O)CCCN2CCC(C(O)(c3ccccc3)c3ccccc3)CC2)cc1

>  <USER_SUPPLIED_SMILES>
O=C(O)C(C)(C)c1ccc(C(O)CCCN2CCC(C(O)(c3ccccc3)c3ccccc3)CC2)cc1

$$$$
C19H22FN3O3
  MOE2018           3D

 48 51  0  0  1  0  0  0  0  0999 V2000
    2.0740   -2.6770   -0.6590 F   0  0  0  0  0  0  0  0  0  0  0  0
    1.1770   -1.6800   -0.4900 C   0  0  0  0  0  0  0  0  0  0  0  0
    1.6090   -0.3510   -0.4840 C   0  0  0  0  0  0  0  0  0  0  0  0
    2.9610   -0.0630   -0.6500 N   0  0  0  0  0  0  0  0  0  0  0  0
    3.6540   -0.5920    0.5310 C   0  0  0  0  0  0  0  0  0  0  0  0
    5.1320   -0.2040    0.4760 C   0  0  3  0  0  0  0  0  0  0  0  0
    5.2610    1.2580    0.5250 N   0  0  0  0  0  0  0  0  0  0  0  0
    4.5680    1.7870   -0.6560 C   0  0  0  0  0  0  0  0  0  0  0  0
    3.0900    1.3990   -0.6020 C   0  0  0  0  0  0  0  0  0  0  0  0
    5.8650   -0.8200    1.6700 C   0  0  0  0  0  0  0  0  0  0  0  0
    0.7020    0.6820   -0.3120 C   0  0  0  0  0  0  0  0  0  0  0  0
   -0.6480    0.3960   -0.1460 C   0  0  0  0  0  0  0  0  0  0  0  0
   -1.5630    1.4140    0.0260 N   0  0  0  0  0  0  0  0  0  0  0  0
   -1.0810    2.7980    0.0280 C   0  0  0  0  0  0  0  0  0  0  0  0
   -1.7310    3.7740   -0.9540 C   0  0  0  0  0  0  0  0  0  0  0  0
   -2.0350    3.8770    0.5420 C   0  0  0  0  0  0  0  0  0  0  0  0
   -2.8730    1.1910    0.1900 C   0  0  0  0  0  0  0  0  0  0  0  0
   -3.4060   -0.0820    0.1990 C   0  0  0  0  0  0  0  0  0  0  0  0
   -2.5050   -1.2320    0.0230 C   0  0  0  0  0  0  0  0  0  0  0  0
   -2.9280   -2.3760    0.0240 O   0  0  0  0  0  0  0  0  0  0  0  0
   -1.0720   -0.9450   -0.1540 C   0  0  0  0  0  0  0  0  0  0  0  0
   -0.1470   -1.9760   -0.3330 C   0  0  0  0  0  0  0  0  0  0  0  0
   -0.6070   -3.4110   -0.3470 C   0  0  0  0  0  0  0  0  0  0  0  0
   -4.8500   -0.2850    0.3830 C   0  0  0  0  0  0  0  0  0  0  0  0
   -5.3600   -1.5330    0.3900 O   0  0  0  0  0  0  0  0  0  0  0  0
   -5.5850    0.6720    0.5280 O   0  0  0  0  0  0  0  0  0  0  0  0
    3.2030   -0.1770    1.4320 H   0  0  0  0  0  0  0  0  0  0  0  0
    3.5640   -1.6780    0.5480 H   0  0  0  0  0  0  0  0  0  0  0  0
    5.5710   -0.5760   -0.4500 H   0  0  0  0  0  0  0  0  0  0  0  0
    4.7390    1.5680    1.3310 H   0  0  0  0  0  0  0  0  0  0  0  0
    4.6580    2.8730   -0.6730 H   0  0  0  0  0  0  0  0  0  0  0  0
    5.0190    1.3720   -1.5570 H   0  0  0  0  0  0  0  0  0  0  0  0
    2.5680    1.8380   -1.4520 H   0  0  0  0  0  0  0  0  0  0  0  0
    2.6510    1.7710    0.3240 H   0  0  0  0  0  0  0  0  0  0  0  0
    5.7720   -1.9050    1.6320 H   0  0  0  0  0  0  0  0  0  0  0  0
    6.9180   -0.5440    1.6310 H   0  0  0  0  0  0  0  0  0  0  0  0
    5.4260   -0.4500    2.5960 H   0  0  0  0  0  0  0  0  0  0  0  0
    1.0430    1.7070   -0.3080 H   0  0  0  0  0  0  0  0  0  0  0  0
   -0.0180    2.9250    0.2360 H   0  0  0  0  0  0  0  0  0  0  0  0
   -1.0960    4.5440   -1.3930 H   0  0  0  0  0  0  0  0  0  0  0  0
   -2.5170    3.3870   -1.6020 H   0  0  0  0  0  0  0  0  0  0  0  0
   -3.0220    3.5580    0.8780 H   0  0  0  0  0  0  0  0  0  0  0  0
   -1.6010    4.7150    1.0870 H   0  0  0  0  0  0  0  0  0  0  0  0
   -3.5340    2.0350    0.3190 H   0  0  0  0  0  0  0  0  0  0  0  0
   -0.9730   -3.6660   -1.3420 H   0  0  0  0  0  0  0  0  0  0  0  0
    0.2270   -4.0630   -0.0890 H   0  0  0  0  0  0  0  0  0  0  0  0
   -1.4090   -3.5420    0.3800 H   0  0  0  0  0  0  0  0  0  0  0  0
   -6.3100   -1.6670    0.5110 H   0  0  0  0  0  0  0  0  0  0  0  0
  1  2  1  0  0  0  0
  2  3  1  0  0  0  0
  2 22  2  0  0  0  0
  3  4  1  0  0  0  0
  3 11  2  0  0  0  0
  4  5  1  0  0  0  0
  4  9  1  0  0  0  0
  5  6  1  0  0  0  0
  5 27  1  0  0  0  0
  5 28  1  0  0  0  0
  6  7  1  0  0  0  0
  6 10  1  0  0  0  0
  6 29  1  0  0  0  0
  7  8  1  0  0  0  0
  7 30  1  0  0  0  0
  8  9  1  0  0  0  0
  8 31  1  0  0  0  0
  8 32  1  0  0  0  0
  9 33  1  0  0  0  0
  9 34  1  0  0  0  0
 10 35  1  0  0  0  0
 10 36  1  0  0  0  0
 10 37  1  0  0  0  0
 11 12  1  0  0  0  0
 11 38  1  0  0  0  0
 12 13  1  0  0  0  0
 12 21  2  0  0  0  0
 13 14  1  0  0  0  0
 13 17  1  0  0  0  0
 14 15  1  0  0  0  0
 14 16  1  0  0  0  0
 14 39  1  0  0  0  0
 15 16  1  0  0  0  0
 15 40  1  0  0  0  0
 15 41  1  0  0  0  0
 16 42  1  0  0  0  0
 16 43  1  0  0  0  0
 17 18  2  0  0  0  0
 17 44  1  0  0  0  0
 18 19  1  0  0  0  0
 18 24  1  0  0  0  0
 19 20  2  0  0  0  0
 19 21  1  0  0  0  0
 21 22  1  0  0  0  0
 22 23  1  0  0  0  0
 23 45  1  0  0  0  0
 23 46  1  0  0  0  0
 23 47  1  0  0  0  0
 24 25  1  0  0  0  0
 24 26  2  0  0  0  0
 25 48  1  0  0  0  0
M  END
>  <UNIQUE_SMILES>
Fc1c(C)c2C(=O)C(C(=O)O)=CN(C3CC3)c2cc1N1CC(C)NCC1

>  <USER_SUPPLIED_SMILES>
Fc1c(C)c2C(=O)C(C(=O)O)=CN(C3CC3)c2cc1N1CC(C)NCC1

$$$$
C25H27ClN4O3
  MOE2018           3D

 60 64  0  0  0  0  0  0  0  0999 V2000
    3.5500    1.9970   -0.8840 C   0  0  0  0  0  0  0  0  0  0  0  0
    3.6360    0.9280    0.0020 C   0  0  0  0  0  0  0  0  0  0  0  0
    4.7240    0.8190    0.8630 C   0  0  0  0  0  0  0  0  0  0  0  0
    5.7180    1.7710    0.8420 C   0  0  0  0  0  0  0  0  0  0  0  0
    5.6350    2.8470   -0.0470 C   0  0  0  0  0  0  0  0  0  0  0  0
    4.5410    2.9520   -0.9110 C   0  0  0  0  0  0  0  0  0  0  0  0
    6.6980    3.8680   -0.0720 C   0  0  0  0  0  0  0  0  0  0  0  0
    7.6480    3.7760    0.6800 O   0  0  0  0  0  0  0  0  0  0  0  0
    6.6160    4.9050   -0.9300 O   0  0  0  0  0  0  0  0  0  0  0  0
    2.6300   -0.0390    0.0270 N   0  0  0  0  0  0  0  0  0  0  0  0
    1.2870    0.2240    0.1110 C   0  0  0  0  0  0  0  0  0  0  0  0
    0.5950   -0.9260    0.1120 C   0  0  0  0  0  0  0  0  0  0  0  0
    1.5710   -2.0150    0.0220 C   0  0  0  0  0  0  0  0  0  0  0  0
    2.8360   -1.4020   -0.0350 C   0  0  0  0  0  0  0  0  0  0  0  0
    3.9760   -2.1920   -0.1260 C   0  0  0  0  0  0  0  0  0  0  0  0
    3.8600   -3.5650   -0.1600 C   0  0  0  0  0  0  0  0  0  0  0  0
    2.6120   -4.1720   -0.1040 C   0  0  0  0  0  0  0  0  0  0  0  0
    1.4690   -3.4070   -0.0180 C   0  0  0  0  0  0  0  0  0  0  0  0
    2.4910   -5.9030   -0.1480 Cl  0  0  0  0  0  0  0  0  0  0  0  0
   -0.9030   -1.0700    0.1920 C   0  0  0  0  0  0  0  0  0  0  0  0
   -1.4100   -0.4410    1.4930 C   0  0  0  0  0  0  0  0  0  0  0  0
   -2.9390   -0.4900    1.5130 C   0  0  0  0  0  0  0  0  0  0  0  0
   -3.4750    0.2840    0.3880 N   0  0  0  0  0  0  0  0  0  0  0  0
   -3.0730   -0.4020   -0.8440 C   0  0  0  0  0  0  0  0  0  0  0  0
   -1.5510   -0.3490   -0.9940 C   0  0  0  0  0  0  0  0  0  0  0  0
   -4.9380    0.1870    0.4680 C   0  0  0  0  0  0  0  0  0  0  0  0
   -5.5690    1.1690   -0.5220 C   0  0  0  0  0  0  0  0  0  0  0  0
   -7.0290    1.0720   -0.4420 N   0  0  0  0  0  0  0  0  0  0  0  0
   -7.8120    1.7920    0.3720 C   0  0  0  0  0  0  0  0  0  0  0  0
   -9.1170    1.5160    0.2540 N   0  0  0  0  0  0  0  0  0  0  0  0
   -9.3000    0.4730   -0.7660 C   0  0  0  0  0  0  0  0  0  0  0  0
   -7.8680    0.1720   -1.2480 C   0  0  0  0  0  0  0  0  0  0  0  0
   -7.3760    2.6210    1.1470 O   0  0  0  0  0  0  0  0  0  0  0  0
    2.7060    2.0760   -1.5540 H   0  0  0  0  0  0  0  0  0  0  0  0
    4.7870   -0.0120    1.5490 H   0  0  0  0  0  0  0  0  0  0  0  0
    6.5620    1.6860    1.5110 H   0  0  0  0  0  0  0  0  0  0  0  0
    4.4730    3.7820   -1.5990 H   0  0  0  0  0  0  0  0  0  0  0  0
    7.3130    5.5750   -0.9460 H   0  0  0  0  0  0  0  0  0  0  0  0
    0.8500    1.2100    0.1680 H   0  0  0  0  0  0  0  0  0  0  0  0
    4.9510   -1.7310   -0.1710 H   0  0  0  0  0  0  0  0  0  0  0  0
    4.7490   -4.1750   -0.2310 H   0  0  0  0  0  0  0  0  0  0  0  0
    0.5000   -3.8820    0.0260 H   0  0  0  0  0  0  0  0  0  0  0  0
   -1.1700   -2.1270    0.1690 H   0  0  0  0  0  0  0  0  0  0  0  0
   -1.0170   -0.9980    2.3440 H   0  0  0  0  0  0  0  0  0  0  0  0
   -1.0780    0.5950    1.5510 H   0  0  0  0  0  0  0  0  0  0  0  0
   -3.2700   -1.5250    1.4310 H   0  0  0  0  0  0  0  0  0  0  0  0
   -3.3030   -0.0670    2.4500 H   0  0  0  0  0  0  0  0  0  0  0  0
   -3.3970   -1.4420   -0.8020 H   0  0  0  0  0  0  0  0  0  0  0  0
   -3.5390    0.0870   -1.7000 H   0  0  0  0  0  0  0  0  0  0  0  0
   -1.2240    0.6900   -1.0120 H   0  0  0  0  0  0  0  0  0  0  0  0
   -1.2590   -0.8400   -1.9220 H   0  0  0  0  0  0  0  0  0  0  0  0
   -5.2490   -0.8280    0.2200 H   0  0  0  0  0  0  0  0  0  0  0  0
   -5.2640    0.4300    1.4790 H   0  0  0  0  0  0  0  0  0  0  0  0
   -5.2590    2.1840   -0.2740 H   0  0  0  0  0  0  0  0  0  0  0  0
   -5.2440    0.9250   -1.5330 H   0  0  0  0  0  0  0  0  0  0  0  0
   -9.8290    1.9380    0.7610 H   0  0  0  0  0  0  0  0  0  0  0  0
   -9.7550   -0.4160   -0.3260 H   0  0  0  0  0  0  0  0  0  0  0  0
   -9.9080    0.8460   -1.5900 H   0  0  0  0  0  0  0  0  0  0  0  0
   -7.7670    0.3940   -2.3100 H   0  0  0  0  0  0  0  0  0  0  0  0
   -7.6070   -0.8670   -1.0470 H   0  0  0  0  0  0  0  0  0  0  0  0
  1  2  1  0  0  0  0
  1  6  2  0  0  0  0
  1 34  1  0  0  0  0
  2  3  2  0  0  0  0
  2 10  1  0  0  0  0
  3  4  1  0  0  0  0
  3 35  1  0  0  0  0
  4  5  2  0  0  0  0
  4 36  1  0  0  0  0
  5  6  1  0  0  0  0
  5  7  1  0  0  0  0
  6 37  1  0  0  0  0
  7  8  2  0  0  0  0
  7  9  1  0  0  0  0
  9 38  1  0  0  0  0
 10 11  1  0  0  0  0
 10 14  1  0  0  0  0
 11 12  2  0  0  0  0
 11 39  1  0  0  0  0
 12 13  1  0  0  0  0
 12 20  1  0  0  0  0
 13 14  1  0  0  0  0
 13 18  2  0  0  0  0
 14 15  2  0  0  0  0
 15 16  1  0  0  0  0
 15 40  1  0  0  0  0
 16 17  2  0  0  0  0
 16 41  1  0  0  0  0
 17 18  1  0  0  0  0
 17 19  1  0  0  0  0
 18 42  1  0  0  0  0
 20 21  1  0  0  0  0
 20 25  1  0  0  0  0
 20 43  1  0  0  0  0
 21 22  1  0  0  0  0
 21 44  1  0  0  0  0
 21 45  1  0  0  0  0
 22 23  1  0  0  0  0
 22 46  1  0  0  0  0
 22 47  1  0  0  0  0
 23 24  1  0  0  0  0
 23 26  1  0  0  0  0
 24 25  1  0  0  0  0
 24 48  1  0  0  0  0
 24 49  1  0  0  0  0
 25 50  1  0  0  0  0
 25 51  1  0  0  0  0
 26 27  1  0  0  0  0
 26 52  1  0  0  0  0
 26 53  1  0  0  0  0
 27 28  1  0  0  0  0
 27 54  1  0  0  0  0
 27 55  1  0  0  0  0
 28 29  1  0  0  0  0
 28 32  1  0  0  0  0
 29 30  1  0  0  0  0
 29 33  2  0  0  0  0
 30 31  1  0  0  0  0
 30 56  1  0  0  0  0
 31 32  1  0  0  0  0
 31 57  1  0  0  0  0
 31 58  1  0  0  0  0
 32 59  1  0  0  0  0
 32 60  1  0  0  0  0
M  END
>  <UNIQUE_SMILES>
Clc1cc2c(C3CCN(CCN4C(=O)NCC4)CC3)cn(-c3ccc(C(=O)O)cc3)c2cc1

>  <USER_SUPPLIED_SMILES>
Clc1cc2c(C3CCN(CCN4C(=O)NCC4)CC3)cn(-c3ccc(C(=O)O)cc3)c2cc1

$$$$
C17H15ClFN
  MOE2018           3D

 35 37  0  0  0  0  0  0  0  0999 V2000
    2.9800    0.7520   -1.0110 C   0  0  0  0  0  0  0  0  0  0  0  0
    2.1040    0.2300   -0.0690 C   0  0  0  0  0  0  0  0  0  0  0  0
    2.5910   -0.5530    0.9700 C   0  0  0  0  0  0  0  0  0  0  0  0
    3.9440   -0.8110    1.0640 C   0  0  0  0  0  0  0  0  0  0  0  0
    4.8160   -0.2890    0.1230 C   0  0  0  0  0  0  0  0  0  0  0  0
    4.3330    0.4920   -0.9140 C   0  0  0  0  0  0  0  0  0  0  0  0
    6.1400   -0.5420    0.2170 F   0  0  0  0  0  0  0  0  0  0  0  0
    0.7310    0.4930   -0.1660 N   0  0  0  0  0  0  0  0  0  0  0  0
    0.1770    1.7340   -0.3310 C   0  0  0  0  0  0  0  0  0  0  0  0
   -1.1610    1.6350   -0.3860 C   0  0  0  0  0  0  0  0  0  0  0  0
   -1.4920    0.2150   -0.2440 C   0  0  0  0  0  0  0  0  0  0  0  0
   -0.2650   -0.4610   -0.1140 C   0  0  0  0  0  0  0  0  0  0  0  0
   -0.2570   -1.8430    0.0380 C   0  0  0  0  0  0  0  0  0  0  0  0
   -1.4460   -2.5380    0.0620 C   0  0  0  0  0  0  0  0  0  0  0  0
   -2.6590   -1.8730   -0.0670 C   0  0  0  0  0  0  0  0  0  0  0  0
   -2.6890   -0.5040   -0.2220 C   0  0  0  0  0  0  0  0  0  0  0  0
   -4.1440   -2.7710   -0.0360 Cl  0  0  0  0  0  0  0  0  0  0  0  0
   -2.1370    2.7700   -0.5590 C   0  0  0  0  0  0  0  0  0  0  0  0
   -2.6330    3.2310    0.8130 C   0  0  0  0  0  0  0  0  0  0  0  0
   -3.6240    4.3820    0.6370 C   0  0  0  0  0  0  0  0  0  0  0  0
    2.6030    1.3570   -1.8220 H   0  0  0  0  0  0  0  0  0  0  0  0
    1.9110   -0.9600    1.7040 H   0  0  0  0  0  0  0  0  0  0  0  0
    4.3230   -1.4190    1.8710 H   0  0  0  0  0  0  0  0  0  0  0  0
    5.0150    0.8980   -1.6460 H   0  0  0  0  0  0  0  0  0  0  0  0
    0.7330    2.6570   -0.4060 H   0  0  0  0  0  0  0  0  0  0  0  0
    0.6800   -2.3700    0.1380 H   0  0  0  0  0  0  0  0  0  0  0  0
   -1.4360   -3.6120    0.1800 H   0  0  0  0  0  0  0  0  0  0  0  0
   -3.6330    0.0100   -0.3210 H   0  0  0  0  0  0  0  0  0  0  0  0
   -1.6440    3.5990   -1.0650 H   0  0  0  0  0  0  0  0  0  0  0  0
   -2.9840    2.4320   -1.1570 H   0  0  0  0  0  0  0  0  0  0  0  0
   -3.1260    2.4010    1.3190 H   0  0  0  0  0  0  0  0  0  0  0  0
   -1.7860    3.5680    1.4100 H   0  0  0  0  0  0  0  0  0  0  0  0
   -3.9770    4.7110    1.6140 H   0  0  0  0  0  0  0  0  0  0  0  0
   -3.1310    5.2120    0.1310 H   0  0  0  0  0  0  0  0  0  0  0  0
   -4.4710    4.0450    0.0390 H   0  0  0  0  0  0  0  0  0  0  0  0
  1  2  1  0  0  0  0
  1  6  2  0  0  0  0
  1 21  1  0  0  0  0
  2  3  2  0  0  0  0
  2  8  1  0  0  0  0
  3  4  1  0  0  0  0
  3 22  1  0  0  0  0
  4  5  2  0  0  0  0
  4 23  1  0  0  0  0
  5  6  1  0  0  0  0
  5  7  1  0  0  0  0
  6 24  1  0  0  0  0
  8  9  1  0  0  0  0
  8 12  1  0  0  0  0
  9 10  2  0  0  0  0
  9 25  1  0  0  0  0
 10 11  1  0  0  0  0
 10 18  1  0  0  0  0
 11 12  1  0  0  0  0
 11 16  2  0  0  0  0
 12 13  2  0  0  0  0
 13 14  1  0  0  0  0
 13 26  1  0  0  0  0
 14 15  2  0  0  0  0
 14 27  1  0  0  0  0
 15 16  1  0  0  0  0
 15 17  1  0  0  0  0
 16 28  1  0  0  0  0
 18 19  1  0  0  0  0
 18 29  1  0  0  0  0
 18 30  1  0  0  0  0
 19 20  1  0  0  0  0
 19 31  1  0  0  0  0
 19 32  1  0  0  0  0
 20 33  1  0  0  0  0
 20 34  1  0  0  0  0
 20 35  1  0  0  0  0
M  END
>  <UNIQUE_SMILES>
Clc1cc2c(CCC)cn(-c3ccc(F)cc3)c2cc1

>  <USER_SUPPLIED_SMILES>
Clc1cc2c(CCC)cn(-c3ccc(F)cc3)c2cc1

$$$$
C19H19ClFNO
  MOE2018           3D

 42 44  0  0  0  0  0  0  0  0999 V2000
    3.1620    0.9290   -0.9520 C   0  0  0  0  0  0  0  0  0  0  0  0
    2.4230    0.1790   -0.0480 C   0  0  0  0  0  0  0  0  0  0  0  0
    3.0720   -0.6510    0.8570 C   0  0  0  0  0  0  0  0  0  0  0  0
    4.4510   -0.7290    0.8550 C   0  0  0  0  0  0  0  0  0  0  0  0
    5.1860    0.0210   -0.0470 C   0  0  0  0  0  0  0  0  0  0  0  0
    4.5410    0.8490   -0.9500 C   0  0  0  0  0  0  0  0  0  0  0  0
    6.5350   -0.0560   -0.0470 F   0  0  0  0  0  0  0  0  0  0  0  0
    1.0240    0.2590   -0.0480 N   0  0  0  0  0  0  0  0  0  0  0  0
    0.3020    1.4230   -0.0250 C   0  0  0  0  0  0  0  0  0  0  0  0
   -1.0120    1.1470   -0.0320 C   0  0  0  0  0  0  0  0  0  0  0  0
   -1.1440   -0.3120   -0.0620 C   0  0  0  0  0  0  0  0  0  0  0  0
    0.1670   -0.8220   -0.0770 C   0  0  0  0  0  0  0  0  0  0  0  0
    0.3660   -2.1970   -0.1070 C   0  0  0  0  0  0  0  0  0  0  0  0
   -0.7180   -3.0480   -0.1220 C   0  0  0  0  0  0  0  0  0  0  0  0
   -2.0130   -2.5460   -0.1080 C   0  0  0  0  0  0  0  0  0  0  0  0
   -2.2320   -1.1860   -0.0810 C   0  0  0  0  0  0  0  0  0  0  0  0
   -3.3620   -3.6380   -0.1280 Cl  0  0  0  0  0  0  0  0  0  0  0  0
   -2.1380    2.1490   -0.0120 C   0  0  0  0  0  0  0  0  0  0  0  0
   -2.9970    1.9750   -1.2650 C   0  0  0  0  0  0  0  0  0  0  0  0
   -4.1370    2.9960   -1.2480 C   0  0  0  0  0  0  0  0  0  0  0  0
   -2.9990    1.9230    1.2330 C   0  0  0  0  0  0  0  0  0  0  0  0
   -2.1200    2.0030    2.4830 C   0  0  0  0  0  0  0  0  0  0  0  0
   -1.5980    3.4720    0.0160 O   0  0  0  0  0  0  0  0  0  0  0  0
    2.6600    1.5720   -1.6600 H   0  0  0  0  0  0  0  0  0  0  0  0
    2.4980   -1.2360    1.5610 H   0  0  0  0  0  0  0  0  0  0  0  0
    4.9550   -1.3740    1.5590 H   0  0  0  0  0  0  0  0  0  0  0  0
    5.1170    1.4330   -1.6530 H   0  0  0  0  0  0  0  0  0  0  0  0
    0.7270    2.4160   -0.0030 H   0  0  0  0  0  0  0  0  0  0  0  0
    1.3680   -2.5990   -0.1190 H   0  0  0  0  0  0  0  0  0  0  0  0
   -0.5590   -4.1160   -0.1460 H   0  0  0  0  0  0  0  0  0  0  0  0
   -3.2400   -0.7990   -0.0700 H   0  0  0  0  0  0  0  0  0  0  0  0
   -2.3830    2.1310   -2.1520 H   0  0  0  0  0  0  0  0  0  0  0  0
   -3.4130    0.9670   -1.2840 H   0  0  0  0  0  0  0  0  0  0  0  0
   -4.6830    2.9460   -2.1900 H   0  0  0  0  0  0  0  0  0  0  0  0
   -4.8130    2.7720   -0.4230 H   0  0  0  0  0  0  0  0  0  0  0  0
   -3.7250    3.9970   -1.1190 H   0  0  0  0  0  0  0  0  0  0  0  0
   -3.7730    2.6890    1.2830 H   0  0  0  0  0  0  0  0  0  0  0  0
   -3.4650    0.9390    1.1780 H   0  0  0  0  0  0  0  0  0  0  0  0
   -2.7490    1.9550    3.3720 H   0  0  0  0  0  0  0  0  0  0  0  0
   -1.4190    1.1690    2.4880 H   0  0  0  0  0  0  0  0  0  0  0  0
   -1.5670    2.9420    2.4780 H   0  0  0  0  0  0  0  0  0  0  0  0
   -1.0640    3.5720   -0.7830 H   0  0  0  0  0  0  0  0  0  0  0  0
  1  2  1  0  0  0  0
  1  6  2  0  0  0  0
  1 24  1  0  0  0  0
  2  3  2  0  0  0  0
  2  8  1  0  0  0  0
  3  4  1  0  0  0  0
  3 25  1  0  0  0  0
  4  5  2  0  0  0  0
  4 26  1  0  0  0  0
  5  6  1  0  0  0  0
  5  7  1  0  0  0  0
  6 27  1  0  0  0  0
  8  9  1  0  0  0  0
  8 12  1  0  0  0  0
  9 10  2  0  0  0  0
  9 28  1  0  0  0  0
 10 11  1  0  0  0  0
 10 18  1  0  0  0  0
 11 12  1  0  0  0  0
 11 16  2  0  0  0  0
 12 13  2  0  0  0  0
 13 14  1  0  0  0  0
 13 29  1  0  0  0  0
 14 15  2  0  0  0  0
 14 30  1  0  0  0  0
 15 16  1  0  0  0  0
 15 17  1  0  0  0  0
 16 31  1  0  0  0  0
 18 19  1  0  0  0  0
 18 21  1  0  0  0  0
 18 23  1  0  0  0  0
 19 20  1  0  0  0  0
 19 32  1  0  0  0  0
 19 33  1  0  0  0  0
 20 34  1  0  0  0  0
 20 35  1  0  0  0  0
 20 36  1  0  0  0  0
 21 22  1  0  0  0  0
 21 37  1  0  0  0  0
 21 38  1  0  0  0  0
 22 39  1  0  0  0  0
 22 40  1  0  0  0  0
 22 41  1  0  0  0  0
 23 42  1  0  0  0  0
M  END
>  <UNIQUE_SMILES>
Clc1cc2c(C(O)(CC)CC)cn(-c3ccc(F)cc3)c2cc1

>  <USER_SUPPLIED_SMILES>
Clc1cc2c(C(O)(CC)CC)cn(-c3ccc(F)cc3)c2cc1

$$$$
C21H29N3O
  MOE2018           3D

 54 55  0  0  1  0  0  0  0  0999 V2000
   -0.8580   -0.5570   -2.5250 O   0  0  0  0  0  0  0  0  0  0  0  0
   -0.8040    0.3920   -1.7720 C   0  0  0  0  0  0  0  0  0  0  0  0
   -0.6180    1.6330   -2.2640 N   0  0  0  0  0  0  0  0  0  0  0  0
   -0.9500    0.1840   -0.2870 C   0  0  3  0  0  0  0  0  0  0  0  0
    0.3140    0.6730    0.4230 C   0  0  0  0  0  0  0  0  0  0  0  0
    1.5120   -0.1620   -0.0360 C   0  0  0  0  0  0  0  0  0  0  0  0
    2.7400    0.3720    0.5670 N   0  0  0  0  0  0  0  0  0  0  0  0
    3.8060   -0.6000    0.2840 C   0  0  0  0  0  0  0  0  0  0  0  0
    5.1100   -0.1280    0.9290 C   0  0  0  0  0  0  0  0  0  0  0  0
    3.4170   -1.9640    0.8580 C   0  0  0  0  0  0  0  0  0  0  0  0
    3.0770    1.5950   -0.1720 C   0  0  0  0  0  0  0  0  0  0  0  0
    4.0180    2.4580    0.6720 C   0  0  0  0  0  0  0  0  0  0  0  0
    3.7670    1.2230   -1.4860 C   0  0  0  0  0  0  0  0  0  0  0  0
   -2.1400    0.9620    0.2140 C   0  0  0  0  0  0  0  0  0  0  0  0
   -3.4120    0.6260   -0.2080 C   0  0  0  0  0  0  0  0  0  0  0  0
   -4.5040    1.3390    0.2520 C   0  0  0  0  0  0  0  0  0  0  0  0
   -4.3220    2.3880    1.1340 C   0  0  0  0  0  0  0  0  0  0  0  0
   -3.0500    2.7230    1.5570 C   0  0  0  0  0  0  0  0  0  0  0  0
   -1.9590    2.0070    1.1010 C   0  0  0  0  0  0  0  0  0  0  0  0
   -1.1520   -1.2820   -0.0020 C   0  0  0  0  0  0  0  0  0  0  0  0
   -1.4800   -2.0980   -0.9840 N   0  0  0  0  0  0  0  0  0  0  0  0
   -1.6670   -3.3870   -0.7820 C   0  0  0  0  0  0  0  0  0  0  0  0
   -1.5220   -3.9330    0.4800 C   0  0  0  0  0  0  0  0  0  0  0  0
   -1.1770   -3.1060    1.5380 C   0  0  0  0  0  0  0  0  0  0  0  0
   -0.9840   -1.7560    1.2850 C   0  0  0  0  0  0  0  0  0  0  0  0
   -0.5280    1.7670   -3.2210 H   0  0  0  0  0  0  0  0  0  0  0  0
   -0.5750    2.3920   -1.6620 H   0  0  0  0  0  0  0  0  0  0  0  0
    0.4860    1.7210    0.1790 H   0  0  0  0  0  0  0  0  0  0  0  0
    0.1900    0.5670    1.5010 H   0  0  0  0  0  0  0  0  0  0  0  0
    1.3740   -1.1970    0.2750 H   0  0  0  0  0  0  0  0  0  0  0  0
    1.5910   -0.1160   -1.1220 H   0  0  0  0  0  0  0  0  0  0  0  0
    3.9430   -0.6840   -0.7940 H   0  0  0  0  0  0  0  0  0  0  0  0
    4.8950    0.3190    1.9000 H   0  0  0  0  0  0  0  0  0  0  0  0
    5.7790   -0.9790    1.0610 H   0  0  0  0  0  0  0  0  0  0  0  0
    5.5860    0.6120    0.2860 H   0  0  0  0  0  0  0  0  0  0  0  0
    3.1380   -1.8520    1.9050 H   0  0  0  0  0  0  0  0  0  0  0  0
    2.5730   -2.3670    0.2980 H   0  0  0  0  0  0  0  0  0  0  0  0
    4.2640   -2.6460    0.7790 H   0  0  0  0  0  0  0  0  0  0  0  0
    2.1660    2.1540   -0.3860 H   0  0  0  0  0  0  0  0  0  0  0  0
    4.9810    1.9560    0.7700 H   0  0  0  0  0  0  0  0  0  0  0  0
    4.1600    3.4230    0.1850 H   0  0  0  0  0  0  0  0  0  0  0  0
    3.5840    2.6100    1.6600 H   0  0  0  0  0  0  0  0  0  0  0  0
    3.1630    0.4890   -2.0180 H   0  0  0  0  0  0  0  0  0  0  0  0
    3.8810    2.1160   -2.1020 H   0  0  0  0  0  0  0  0  0  0  0  0
    4.7500    0.8010   -1.2740 H   0  0  0  0  0  0  0  0  0  0  0  0
   -3.5540   -0.1930   -0.8970 H   0  0  0  0  0  0  0  0  0  0  0  0
   -5.4980    1.0780   -0.0780 H   0  0  0  0  0  0  0  0  0  0  0  0
   -5.1750    2.9460    1.4930 H   0  0  0  0  0  0  0  0  0  0  0  0
   -2.9080    3.5430    2.2460 H   0  0  0  0  0  0  0  0  0  0  0  0
   -0.9640    2.2690    1.4310 H   0  0  0  0  0  0  0  0  0  0  0  0
   -1.9360   -4.0240   -1.6120 H   0  0  0  0  0  0  0  0  0  0  0  0
   -1.6760   -4.9900    0.6390 H   0  0  0  0  0  0  0  0  0  0  0  0
   -1.0570   -3.5050    2.5340 H   0  0  0  0  0  0  0  0  0  0  0  0
   -0.7150   -1.0830    2.0860 H   0  0  0  0  0  0  0  0  0  0  0  0
  1  2  2  0  0  0  0
  2  3  1  0  0  0  0
  2  4  1  0  0  0  0
  3 26  1  0  0  0  0
  3 27  1  0  0  0  0
  4  5  1  0  0  0  0
  4 14  1  0  0  0  0
  4 20  1  0  0  0  0
  5  6  1  0  0  0  0
  5 28  1  0  0  0  0
  5 29  1  0  0  0  0
  6  7  1  0  0  0  0
  6 30  1  0  0  0  0
  6 31  1  0  0  0  0
  7  8  1  0  0  0  0
  7 11  1  0  0  0  0
  8  9  1  0  0  0  0
  8 10  1  0  0  0  0
  8 32  1  0  0  0  0
  9 33  1  0  0  0  0
  9 34  1  0  0  0  0
  9 35  1  0  0  0  0
 10 36  1  0  0  0  0
 10 37  1  0  0  0  0
 10 38  1  0  0  0  0
 11 12  1  0  0  0  0
 11 13  1  0  0  0  0
 11 39  1  0  0  0  0
 12 40  1  0  0  0  0
 12 41  1  0  0  0  0
 12 42  1  0  0  0  0
 13 43  1  0  0  0  0
 13 44  1  0  0  0  0
 13 45  1  0  0  0  0
 14 15  1  0  0  0  0
 14 19  2  0  0  0  0
 15 16  2  0  0  0  0
 15 46  1  0  0  0  0
 16 17  1  0  0  0  0
 16 47  1  0  0  0  0
 17 18  2  0  0  0  0
 17 48  1  0  0  0  0
 18 19  1  0  0  0  0
 18 49  1  0  0  0  0
 19 50  1  0  0  0  0
 20 21  1  0  0  0  0
 20 25  2  0  0  0  0
 21 22  2  0  0  0  0
 22 23  1  0  0  0  0
 22 51  1  0  0  0  0
 23 24  2  0  0  0  0
 23 52  1  0  0  0  0
 24 25  1  0  0  0  0
 24 53  1  0  0  0  0
 25 54  1  0  0  0  0
M  END
>  <UNIQUE_SMILES>
O=C(N)C(CCN(C(C)C)C(C)C)(c1ncccc1)c1ccccc1

>  <USER_SUPPLIED_SMILES>
O=C(N)C(CCN(C(C)C)C(C)C)(c1ncccc1)c1ccccc1

$$$$
C23H32N6O4S
  MOE2018           3D

 66 69  0  0  0  0  0  0  0  0999 V2000
   -2.9040   -0.0440   -1.5410 S   0  0  0  0  0  0  0  0  0  0  0  0
   -2.3670   -1.3410   -1.7660 O   0  0  0  0  0  0  0  0  0  0  0  0
   -3.6600    0.7070   -2.4810 O   0  0  0  0  0  0  0  0  0  0  0  0
   -3.8630   -0.1820   -0.1990 N   0  0  0  0  0  0  0  0  0  0  0  0
   -4.9490    0.7780    0.0600 C   0  0  0  0  0  0  0  0  0  0  0  0
   -6.2230   -0.0090    0.3850 C   0  0  0  0  0  0  0  0  0  0  0  0
   -5.9680   -0.9130    1.5120 N   0  0  0  0  0  0  0  0  0  0  0  0
   -5.0120   -1.9270    1.0540 C   0  0  0  0  0  0  0  0  0  0  0  0
   -3.6620   -1.2700    0.7710 C   0  0  0  0  0  0  0  0  0  0  0  0
   -7.2300   -1.6150    1.7840 C   0  0  0  0  0  0  0  0  0  0  0  0
   -7.0100   -2.6490    2.8890 C   0  0  0  0  0  0  0  0  0  0  0  0
   -1.5320    0.9730   -1.1070 C   0  0  0  0  0  0  0  0  0  0  0  0
   -0.3870    0.4000   -0.6000 C   0  0  0  0  0  0  0  0  0  0  0  0
    0.7020    1.2060   -0.2560 C   0  0  0  0  0  0  0  0  0  0  0  0
    0.6180    2.5950   -0.4300 C   0  0  0  0  0  0  0  0  0  0  0  0
    1.6680    3.3880   -0.0990 O   0  0  0  0  0  0  0  0  0  0  0  0
    1.2770    4.7320   -0.3890 C   0  0  0  0  0  0  0  0  0  0  0  0
    2.4230    5.6830   -0.0370 C   0  0  0  0  0  0  0  0  0  0  0  0
   -0.5430    3.1540   -0.9410 C   0  0  0  0  0  0  0  0  0  0  0  0
   -1.6090    2.3450   -1.2830 C   0  0  0  0  0  0  0  0  0  0  0  0
    1.9300    0.6000    0.2880 C   0  0  0  0  0  0  0  0  0  0  0  0
    2.3760   -0.5740   -0.2470 N   0  0  0  0  0  0  0  0  0  0  0  0
    3.5390   -1.1760    0.2450 N   0  0  0  0  0  0  0  0  0  0  0  0
    4.2190   -2.2920   -0.0550 C   0  0  0  0  0  0  0  0  0  0  0  0
    5.2630   -2.3830    0.7320 N   0  0  0  0  0  0  0  0  0  0  0  0
    5.2930   -1.3350    1.5620 C   0  0  0  0  0  0  0  0  0  0  0  0
    4.2170   -0.5550    1.2780 C   0  0  0  0  0  0  0  0  0  0  0  0
    3.6830    0.7060    1.8080 C   0  0  0  0  0  0  0  0  0  0  0  0
    4.2500    1.2860    2.7180 O   0  0  0  0  0  0  0  0  0  0  0  0
    2.5600    1.2140    1.2680 N   0  0  0  0  0  0  0  0  0  0  0  0
    6.3320   -1.0680    2.6200 C   0  0  0  0  0  0  0  0  0  0  0  0
    3.8420   -3.2840   -1.1250 C   0  0  0  0  0  0  0  0  0  0  0  0
    4.5020   -2.8840   -2.4460 C   0  0  0  0  0  0  0  0  0  0  0  0
    4.1200   -3.8910   -3.5330 C   0  0  0  0  0  0  0  0  0  0  0  0
   -4.6840    1.4120    0.9060 H   0  0  0  0  0  0  0  0  0  0  0  0
   -5.1130    1.3940   -0.8240 H   0  0  0  0  0  0  0  0  0  0  0  0
   -7.0210    0.6850    0.6490 H   0  0  0  0  0  0  0  0  0  0  0  0
   -6.5220   -0.5910   -0.4870 H   0  0  0  0  0  0  0  0  0  0  0  0
   -4.8920   -2.6880    1.8260 H   0  0  0  0  0  0  0  0  0  0  0  0
   -5.3850   -2.3920    0.1410 H   0  0  0  0  0  0  0  0  0  0  0  0
   -2.9740   -2.0080    0.3590 H   0  0  0  0  0  0  0  0  0  0  0  0
   -3.2520   -0.8610    1.6940 H   0  0  0  0  0  0  0  0  0  0  0  0
   -7.9840   -0.8960    2.1030 H   0  0  0  0  0  0  0  0  0  0  0  0
   -7.5680   -2.1180    0.8780 H   0  0  0  0  0  0  0  0  0  0  0  0
   -7.9680   -3.0870    3.1730 H   0  0  0  0  0  0  0  0  0  0  0  0
   -6.3460   -3.4330    2.5270 H   0  0  0  0  0  0  0  0  0  0  0  0
   -6.5620   -2.1640    3.7560 H   0  0  0  0  0  0  0  0  0  0  0  0
   -0.3300   -0.6710   -0.4690 H   0  0  0  0  0  0  0  0  0  0  0  0
    1.0430    4.8220   -1.4500 H   0  0  0  0  0  0  0  0  0  0  0  0
    0.3970    4.9900    0.2010 H   0  0  0  0  0  0  0  0  0  0  0  0
    2.1260    6.7080   -0.2580 H   0  0  0  0  0  0  0  0  0  0  0  0
    2.6570    5.5930    1.0240 H   0  0  0  0  0  0  0  0  0  0  0  0
    3.3030    5.4250   -0.6260 H   0  0  0  0  0  0  0  0  0  0  0  0
   -0.6120    4.2230   -1.0770 H   0  0  0  0  0  0  0  0  0  0  0  0
   -2.5110    2.7850   -1.6820 H   0  0  0  0  0  0  0  0  0  0  0  0
    1.8850   -0.9930   -0.9710 H   0  0  0  0  0  0  0  0  0  0  0  0
    7.1430   -0.4780    2.1920 H   0  0  0  0  0  0  0  0  0  0  0  0
    5.8770   -0.5170    3.4440 H   0  0  0  0  0  0  0  0  0  0  0  0
    6.7260   -2.0140    2.9900 H   0  0  0  0  0  0  0  0  0  0  0  0
    4.1830   -4.2780   -0.8360 H   0  0  0  0  0  0  0  0  0  0  0  0
    2.7590   -3.2930   -1.2480 H   0  0  0  0  0  0  0  0  0  0  0  0
    4.1610   -1.8900   -2.7360 H   0  0  0  0  0  0  0  0  0  0  0  0
    5.5850   -2.8750   -2.3240 H   0  0  0  0  0  0  0  0  0  0  0  0
    4.5900   -3.6050   -4.4740 H   0  0  0  0  0  0  0  0  0  0  0  0
    4.4610   -4.8850   -3.2430 H   0  0  0  0  0  0  0  0  0  0  0  0
    3.0370   -3.9000   -3.6560 H   0  0  0  0  0  0  0  0  0  0  0  0
  1  2  2  0  0  0  0
  1  3  2  0  0  0  0
  1  4  1  0  0  0  0
  1 12  1  0  0  0  0
  4  5  1  0  0  0  0
  4  9  1  0  0  0  0
  5  6  1  0  0  0  0
  5 35  1  0  0  0  0
  5 36  1  0  0  0  0
  6  7  1  0  0  0  0
  6 37  1  0  0  0  0
  6 38  1  0  0  0  0
  7  8  1  0  0  0  0
  7 10  1  0  0  0  0
  8  9  1  0  0  0  0
  8 39  1  0  0  0  0
  8 40  1  0  0  0  0
  9 41  1  0  0  0  0
  9 42  1  0  0  0  0
 10 11  1  0  0  0  0
 10 43  1  0  0  0  0
 10 44  1  0  0  0  0
 11 45  1  0  0  0  0
 11 46  1  0  0  0  0
 11 47  1  0  0  0  0
 12 13  1  0  0  0  0
 12 20  2  0  0  0  0
 13 14  2  0  0  0  0
 13 48  1  0  0  0  0
 14 15  1  0  0  0  0
 14 21  1  0  0  0  0
 15 16  1  0  0  0  0
 15 19  2  0  0  0  0
 16 17  1  0  0  0  0
 17 18  1  0  0  0  0
 17 49  1  0  0  0  0
 17 50  1  0  0  0  0
 18 51  1  0  0  0  0
 18 52  1  0  0  0  0
 18 53  1  0  0  0  0
 19 20  1  0  0  0  0
 19 54  1  0  0  0  0
 20 55  1  0  0  0  0
 21 22  1  0  0  0  0
 21 30  2  0  0  0  0
 22 23  1  0  0  0  0
 22 56  1  0  0  0  0
 23 24  1  0  0  0  0
 23 27  1  0  0  0  0
 24 25  2  0  0  0  0
 24 32  1  0  0  0  0
 25 26  1  0  0  0  0
 26 27  2  0  0  0  0
 26 31  1  0  0  0  0
 27 28  1  0  0  0  0
 28 29  2  0  0  0  0
 28 30  1  0  0  0  0
 31 57  1  0  0  0  0
 31 58  1  0  0  0  0
 31 59  1  0  0  0  0
 32 33  1  0  0  0  0
 32 60  1  0  0  0  0
 32 61  1  0  0  0  0
 33 34  1  0  0  0  0
 33 62  1  0  0  0  0
 33 63  1  0  0  0  0
 34 64  1  0  0  0  0
 34 65  1  0  0  0  0
 34 66  1  0  0  0  0
M  END
>  <UNIQUE_SMILES>
S(=O)(=O)(N1CCN(CC)CC1)c1cc(c(OCC)cc1)C1=NC(=O)c2c(C)nc(CCC)n2N1

>  <USER_SUPPLIED_SMILES>
S(=O)(=O)(N1CCN(CC)CC1)c1cc(c(OCC)cc1)C1=NC(=O)c2c(C)nc(CCC)n2N1

$$$$
C16H19ClN2
  MOE2018           3D

 38 39  0  0  1  0  0  0  0  0999 V2000
   -5.2990   -0.5950   -0.3880 Cl  0  0  0  0  0  0  0  0  0  0  0  0
   -3.5980   -0.4600   -0.0710 C   0  0  0  0  0  0  0  0  0  0  0  0
   -3.1310   -0.4990    1.2320 C   0  0  0  0  0  0  0  0  0  0  0  0
   -1.7770   -0.3910    1.4840 C   0  0  0  0  0  0  0  0  0  0  0  0
   -0.8880   -0.2450    0.4360 C   0  0  0  0  0  0  0  0  0  0  0  0
    0.5890   -0.1270    0.7110 C   0  0  3  0  0  0  0  0  0  0  0  0
    1.3440   -1.1890   -0.0910 C   0  0  0  0  0  0  0  0  0  0  0  0
    2.8270   -1.1520    0.2830 C   0  0  0  0  0  0  0  0  0  0  0  0
    3.5520   -2.1720   -0.4870 N   0  0  0  0  0  0  0  0  0  0  0  0
    4.9840   -1.9260   -0.2700 C   0  0  0  0  0  0  0  0  0  0  0  0
    3.2460   -3.4670    0.1350 C   0  0  0  0  0  0  0  0  0  0  0  0
    1.0680    1.2430    0.3060 C   0  0  0  0  0  0  0  0  0  0  0  0
    1.1680    2.1940    1.2150 N   0  0  0  0  0  0  0  0  0  0  0  0
    1.5820    3.4070    0.9060 C   0  0  0  0  0  0  0  0  0  0  0  0
    1.9310    3.7260   -0.3920 C   0  0  0  0  0  0  0  0  0  0  0  0
    1.8400    2.7530   -1.3750 C   0  0  0  0  0  0  0  0  0  0  0  0
    1.4040    1.4870   -1.0120 C   0  0  0  0  0  0  0  0  0  0  0  0
   -1.3530   -0.2060   -0.8660 C   0  0  0  0  0  0  0  0  0  0  0  0
   -2.7070   -0.3190   -1.1200 C   0  0  0  0  0  0  0  0  0  0  0  0
   -3.8260   -0.6120    2.0510 H   0  0  0  0  0  0  0  0  0  0  0  0
   -1.4130   -0.4220    2.5000 H   0  0  0  0  0  0  0  0  0  0  0  0
    0.7730   -0.2760    1.7750 H   0  0  0  0  0  0  0  0  0  0  0  0
    0.9360   -2.1740    0.1370 H   0  0  0  0  0  0  0  0  0  0  0  0
    1.2330   -0.9870   -1.1560 H   0  0  0  0  0  0  0  0  0  0  0  0
    3.2350   -0.1670    0.0560 H   0  0  0  0  0  0  0  0  0  0  0  0
    2.9380   -1.3540    1.3480 H   0  0  0  0  0  0  0  0  0  0  0  0
    5.2100   -2.0100    0.7930 H   0  0  0  0  0  0  0  0  0  0  0  0
    5.5670   -2.6620   -0.8240 H   0  0  0  0  0  0  0  0  0  0  0  0
    5.2380   -0.9250   -0.6180 H   0  0  0  0  0  0  0  0  0  0  0  0
    3.7640   -4.2600   -0.4040 H   0  0  0  0  0  0  0  0  0  0  0  0
    3.5770   -3.4580    1.1740 H   0  0  0  0  0  0  0  0  0  0  0  0
    2.1720   -3.6440    0.0980 H   0  0  0  0  0  0  0  0  0  0  0  0
    1.6500    4.1600    1.6780 H   0  0  0  0  0  0  0  0  0  0  0  0
    2.2700    4.7220   -0.6390 H   0  0  0  0  0  0  0  0  0  0  0  0
    2.1050    2.9730   -2.3980 H   0  0  0  0  0  0  0  0  0  0  0  0
    1.3210    0.7040   -1.7510 H   0  0  0  0  0  0  0  0  0  0  0  0
   -0.6580   -0.0920   -1.6840 H   0  0  0  0  0  0  0  0  0  0  0  0
   -3.0700   -0.2890   -2.1360 H   0  0  0  0  0  0  0  0  0  0  0  0
  1  2  1  0  0  0  0
  2  3  1  0  0  0  0
  2 19  2  0  0  0  0
  3  4  2  0  0  0  0
  3 20  1  0  0  0  0
  4  5  1  0  0  0  0
  4 21  1  0  0  0  0
  5  6  1  0  0  0  0
  5 18  2  0  0  0  0
  6  7  1  0  0  0  0
  6 12  1  0  0  0  0
  6 22  1  0  0  0  0
  7  8  1  0  0  0  0
  7 23  1  0  0  0  0
  7 24  1  0  0  0  0
  8  9  1  0  0  0  0
  8 25  1  0  0  0  0
  8 26  1  0  0  0  0
  9 10  1  0  0  0  0
  9 11  1  0  0  0  0
 10 27  1  0  0  0  0
 10 28  1  0  0  0  0
 10 29  1  0  0  0  0
 11 30  1  0  0  0  0
 11 31  1  0  0  0  0
 11 32  1  0  0  0  0
 12 13  1  0  0  0  0
 12 17  2  0  0  0  0
 13 14  2  0  0  0  0
 14 15  1  0  0  0  0
 14 33  1  0  0  0  0
 15 16  2  0  0  0  0
 15 34  1  0  0  0  0
 16 17  1  0  0  0  0
 16 35  1  0  0  0  0
 17 36  1  0  0  0  0
 18 19  1  0  0  0  0
 18 37  1  0  0  0  0
 19 38  1  0  0  0  0
M  END
>  <UNIQUE_SMILES>
Clc1ccc(C(CCN(C)C)c2ncccc2)cc1

>  <USER_SUPPLIED_SMILES>
Clc1ccc(C(CCN(C)C)c2ncccc2)cc1

$$$$
C19H25N5O4
  MOE2018           3D

 53 56  0  0  1  0  0  0  0  0999 V2000
    6.5620   -0.0470    1.3420 O   0  0  0  0  0  0  0  0  0  0  0  0
    5.3470    0.4290    0.7230 C   0  0  3  0  0  0  0  0  0  0  0  0
    5.8030    1.5630   -0.2220 C   0  0  0  0  0  0  0  0  0  0  0  0
    7.1410    2.0410    0.3850 C   0  0  0  0  0  0  0  0  0  0  0  0
    7.3360    1.1400    1.6240 C   0  0  0  0  0  0  0  0  0  0  0  0
    4.6910   -0.6770   -0.0630 C   0  0  0  0  0  0  0  0  0  0  0  0
    3.5040   -0.4640   -0.6630 N   0  0  0  0  0  0  0  0  0  0  0  0
    2.8420   -1.5280   -1.4360 C   0  0  0  0  0  0  0  0  0  0  0  0
    1.3840   -1.6230   -0.9770 C   0  0  0  0  0  0  0  0  0  0  0  0
    0.7360   -0.3150   -1.1210 N   0  0  0  0  0  0  0  0  0  0  0  0
    1.3680    0.5960   -0.1600 C   0  0  0  0  0  0  0  0  0  0  0  0
    2.8230    0.8370   -0.5610 C   0  0  0  0  0  0  0  0  0  0  0  0
   -0.5770   -0.4740   -0.7130 C   0  0  0  0  0  0  0  0  0  0  0  0
   -1.3810    0.5720   -0.7480 N   0  0  0  0  0  0  0  0  0  0  0  0
   -2.6610    0.4580   -0.3610 C   0  0  0  0  0  0  0  0  0  0  0  0
   -3.1290   -0.8030    0.0840 C   0  0  0  0  0  0  0  0  0  0  0  0
   -2.2200   -1.8890    0.0990 C   0  0  0  0  0  0  0  0  0  0  0  0
   -0.9770   -1.6750   -0.3080 N   0  0  0  0  0  0  0  0  0  0  0  0
   -2.6200   -3.1390    0.5230 N   0  0  0  0  0  0  0  0  0  0  0  0
   -4.4600   -0.9480    0.4940 C   0  0  0  0  0  0  0  0  0  0  0  0
   -5.3000    0.1290    0.4620 C   0  0  0  0  0  0  0  0  0  0  0  0
   -6.5920   -0.0140    0.8610 O   0  0  0  0  0  0  0  0  0  0  0  0
   -6.7570   -1.3800    1.2470 C   0  0  0  0  0  0  0  0  0  0  0  0
   -4.8430    1.3790    0.0230 C   0  0  0  0  0  0  0  0  0  0  0  0
   -5.6970    2.4360    0.0000 O   0  0  0  0  0  0  0  0  0  0  0  0
   -4.9550    3.5560   -0.4870 C   0  0  0  0  0  0  0  0  0  0  0  0
   -3.5390    1.5480   -0.3860 C   0  0  0  0  0  0  0  0  0  0  0  0
    5.2330   -1.7580   -0.1560 O   0  0  0  0  0  0  0  0  0  0  0  0
    4.6630    0.8160    1.4780 H   0  0  0  0  0  0  0  0  0  0  0  0
    5.9570    1.1800   -1.2310 H   0  0  0  0  0  0  0  0  0  0  0  0
    5.0740    2.3730   -0.2260 H   0  0  0  0  0  0  0  0  0  0  0  0
    7.9560    1.8960   -0.3250 H   0  0  0  0  0  0  0  0  0  0  0  0
    7.0740    3.0880    0.6800 H   0  0  0  0  0  0  0  0  0  0  0  0
    6.9560    1.6370    2.5170 H   0  0  0  0  0  0  0  0  0  0  0  0
    8.3880    0.8870    1.7480 H   0  0  0  0  0  0  0  0  0  0  0  0
    2.8780   -1.2850   -2.4980 H   0  0  0  0  0  0  0  0  0  0  0  0
    3.3460   -2.4780   -1.2590 H   0  0  0  0  0  0  0  0  0  0  0  0
    0.8580   -2.3580   -1.5880 H   0  0  0  0  0  0  0  0  0  0  0  0
    1.3510   -1.9310    0.0680 H   0  0  0  0  0  0  0  0  0  0  0  0
    0.8320    1.5450   -0.1520 H   0  0  0  0  0  0  0  0  0  0  0  0
    1.3370    0.1530    0.8350 H   0  0  0  0  0  0  0  0  0  0  0  0
    3.3150    1.4510    0.1940 H   0  0  0  0  0  0  0  0  0  0  0  0
    2.8600    1.3410   -1.5260 H   0  0  0  0  0  0  0  0  0  0  0  0
   -3.5340   -3.2830    0.8150 H   0  0  0  0  0  0  0  0  0  0  0  0
   -1.9880   -3.8740    0.5290 H   0  0  0  0  0  0  0  0  0  0  0  0
   -4.8220   -1.9080    0.8340 H   0  0  0  0  0  0  0  0  0  0  0  0
   -7.7830   -1.5430    1.5760 H   0  0  0  0  0  0  0  0  0  0  0  0
   -6.5410   -2.0260    0.3970 H   0  0  0  0  0  0  0  0  0  0  0  0
   -6.0730   -1.6120    2.0630 H   0  0  0  0  0  0  0  0  0  0  0  0
   -5.6020    4.4320   -0.5220 H   0  0  0  0  0  0  0  0  0  0  0  0
   -4.1140    3.7520    0.1790 H   0  0  0  0  0  0  0  0  0  0  0  0
   -4.5830    3.3380   -1.4880 H   0  0  0  0  0  0  0  0  0  0  0  0
   -3.1960    2.5150   -0.7230 H   0  0  0  0  0  0  0  0  0  0  0  0
  1  2  1  0  0  0  0
  1  5  1  0  0  0  0
  2  3  1  0  0  0  0
  2  6  1  0  0  0  0
  2 29  1  0  0  0  0
  3  4  1  0  0  0  0
  3 30  1  0  0  0  0
  3 31  1  0  0  0  0
  4  5  1  0  0  0  0
  4 32  1  0  0  0  0
  4 33  1  0  0  0  0
  5 34  1  0  0  0  0
  5 35  1  0  0  0  0
  6  7  1  0  0  0  0
  6 28  2  0  0  0  0
  7  8  1  0  0  0  0
  7 12  1  0  0  0  0
  8  9  1  0  0  0  0
  8 36  1  0  0  0  0
  8 37  1  0  0  0  0
  9 10  1  0  0  0  0
  9 38  1  0  0  0  0
  9 39  1  0  0  0  0
 10 11  1  0  0  0  0
 10 13  1  0  0  0  0
 11 12  1  0  0  0  0
 11 40  1  0  0  0  0
 11 41  1  0  0  0  0
 12 42  1  0  0  0  0
 12 43  1  0  0  0  0
 13 14  1  0  0  0  0
 13 18  2  0  0  0  0
 14 15  2  0  0  0  0
 15 16  1  0  0  0  0
 15 27  1  0  0  0  0
 16 17  2  0  0  0  0
 16 20  1  0  0  0  0
 17 18  1  0  0  0  0
 17 19  1  0  0  0  0
 19 44  1  0  0  0  0
 19 45  1  0  0  0  0
 20 21  2  0  0  0  0
 20 46  1  0  0  0  0
 21 22  1  0  0  0  0
 21 24  1  0  0  0  0
 22 23  1  0  0  0  0
 23 47  1  0  0  0  0
 23 48  1  0  0  0  0
 23 49  1  0  0  0  0
 24 25  1  0  0  0  0
 24 27  2  0  0  0  0
 25 26  1  0  0  0  0
 26 50  1  0  0  0  0
 26 51  1  0  0  0  0
 26 52  1  0  0  0  0
 27 53  1  0  0  0  0
M  END
>  <UNIQUE_SMILES>
O=C(N1CCN(c2nc(N)c3c(n2)cc(OC)c(OC)c3)CC1)C1OCCC1

>  <USER_SUPPLIED_SMILES>
O=C(N1CCN(c2nc(N)c3c(n2)cc(OC)c(OC)c3)CC1)C1OCCC1

$$$$
C21H25ClN2O3
  MOE2018           3D

 52 54  0  0  1  0  0  0  0  0999 V2000
   -1.7090   -2.4240    1.1360 C   0  0  0  0  0  0  0  0  0  0  0  0
   -1.9400   -3.7480    1.4600 C   0  0  0  0  0  0  0  0  0  0  0  0
   -2.0610   -4.6940    0.4590 C   0  0  0  0  0  0  0  0  0  0  0  0
   -1.9520   -4.3150   -0.8660 C   0  0  0  0  0  0  0  0  0  0  0  0
   -1.7230   -2.9910   -1.1900 C   0  0  0  0  0  0  0  0  0  0  0  0
   -1.6000   -2.0460   -0.1890 C   0  0  0  0  0  0  0  0  0  0  0  0
   -1.3510   -0.6020   -0.5430 C   0  0  3  0  0  0  0  0  0  0  0  0
   -2.6460    0.1650   -0.4660 C   0  0  0  0  0  0  0  0  0  0  0  0
   -3.3500    0.4490   -1.6220 C   0  0  0  0  0  0  0  0  0  0  0  0
   -4.5370    1.1520   -1.5520 C   0  0  0  0  0  0  0  0  0  0  0  0
   -5.0220    1.5720   -0.3260 C   0  0  0  0  0  0  0  0  0  0  0  0
   -4.3170    1.2880    0.8300 C   0  0  0  0  0  0  0  0  0  0  0  0
   -3.1320    0.5790    0.7600 C   0  0  0  0  0  0  0  0  0  0  0  0
   -6.5130    2.4560   -0.2380 Cl  0  0  0  0  0  0  0  0  0  0  0  0
   -0.3840   -0.0270    0.4020 N   0  0  0  0  0  0  0  0  0  0  0  0
   -0.0940    1.3340   -0.0670 C   0  0  0  0  0  0  0  0  0  0  0  0
    1.0010    1.9550    0.8010 C   0  0  0  0  0  0  0  0  0  0  0  0
    2.2410    1.1820    0.6590 N   0  0  0  0  0  0  0  0  0  0  0  0
    1.9510   -0.1790    1.1290 C   0  0  0  0  0  0  0  0  0  0  0  0
    0.8560   -0.8000    0.2610 C   0  0  0  0  0  0  0  0  0  0  0  0
    3.2070    1.7570    1.6040 C   0  0  0  0  0  0  0  0  0  0  0  0
    4.4980    0.9360    1.5770 C   0  0  0  0  0  0  0  0  0  0  0  0
    5.0860    1.0160    0.2770 O   0  0  0  0  0  0  0  0  0  0  0  0
    6.2810    0.2330    0.3160 C   0  0  0  0  0  0  0  0  0  0  0  0
    6.9530    0.2760   -1.0330 C   0  0  0  0  0  0  0  0  0  0  0  0
    8.1000   -0.3920   -1.2320 O   0  0  0  0  0  0  0  0  0  0  0  0
    6.4590    0.9110   -1.9340 O   0  0  0  0  0  0  0  0  0  0  0  0
   -1.6190   -1.6840    1.9180 H   0  0  0  0  0  0  0  0  0  0  0  0
   -2.0240   -4.0430    2.4960 H   0  0  0  0  0  0  0  0  0  0  0  0
   -2.2400   -5.7280    0.7130 H   0  0  0  0  0  0  0  0  0  0  0  0
   -2.0470   -5.0540   -1.6480 H   0  0  0  0  0  0  0  0  0  0  0  0
   -1.6380   -2.6960   -2.2250 H   0  0  0  0  0  0  0  0  0  0  0  0
   -0.9510   -0.5400   -1.5550 H   0  0  0  0  0  0  0  0  0  0  0  0
   -2.9710    0.1210   -2.5790 H   0  0  0  0  0  0  0  0  0  0  0  0
   -5.0870    1.3740   -2.4550 H   0  0  0  0  0  0  0  0  0  0  0  0
   -4.6940    1.6150    1.7870 H   0  0  0  0  0  0  0  0  0  0  0  0
   -2.5810    0.3570    1.6620 H   0  0  0  0  0  0  0  0  0  0  0  0
    0.2420    1.2960   -1.1030 H   0  0  0  0  0  0  0  0  0  0  0  0
   -0.9980    1.9400   -0.0010 H   0  0  0  0  0  0  0  0  0  0  0  0
    1.1760    2.9830    0.4840 H   0  0  0  0  0  0  0  0  0  0  0  0
    0.6850    1.9460    1.8440 H   0  0  0  0  0  0  0  0  0  0  0  0
    2.8540   -0.7860    1.0620 H   0  0  0  0  0  0  0  0  0  0  0  0
    1.6150   -0.1410    2.1650 H   0  0  0  0  0  0  0  0  0  0  0  0
    0.6810   -1.8280    0.5780 H   0  0  0  0  0  0  0  0  0  0  0  0
    1.1720   -0.7910   -0.7830 H   0  0  0  0  0  0  0  0  0  0  0  0
    3.4250    2.7860    1.3190 H   0  0  0  0  0  0  0  0  0  0  0  0
    2.7870    1.7400    2.6100 H   0  0  0  0  0  0  0  0  0  0  0  0
    5.1950    1.3310    2.3160 H   0  0  0  0  0  0  0  0  0  0  0  0
    4.2720   -0.1040    1.8100 H   0  0  0  0  0  0  0  0  0  0  0  0
    6.9550    0.6370    1.0710 H   0  0  0  0  0  0  0  0  0  0  0  0
    6.0320   -0.7980    0.5650 H   0  0  0  0  0  0  0  0  0  0  0  0
    8.5310   -0.3650   -2.0970 H   0  0  0  0  0  0  0  0  0  0  0  0
  1  2  1  0  0  0  0
  1  6  2  0  0  0  0
  1 28  1  0  0  0  0
  2  3  2  0  0  0  0
  2 29  1  0  0  0  0
  3  4  1  0  0  0  0
  3 30  1  0  0  0  0
  4  5  2  0  0  0  0
  4 31  1  0  0  0  0
  5  6  1  0  0  0  0
  5 32  1  0  0  0  0
  6  7  1  0  0  0  0
  7  8  1  0  0  0  0
  7 15  1  0  0  0  0
  7 33  1  0  0  0  0
  8  9  1  0  0  0  0
  8 13  2  0  0  0  0
  9 10  2  0  0  0  0
  9 34  1  0  0  0  0
 10 11  1  0  0  0  0
 10 35  1  0  0  0  0
 11 12  2  0  0  0  0
 11 14  1  0  0  0  0
 12 13  1  0  0  0  0
 12 36  1  0  0  0  0
 13 37  1  0  0  0  0
 15 16  1  0  0  0  0
 15 20  1  0  0  0  0
 16 17  1  0  0  0  0
 16 38  1  0  0  0  0
 16 39  1  0  0  0  0
 17 18  1  0  0  0  0
 17 40  1  0  0  0  0
 17 41  1  0  0  0  0
 18 19  1  0  0  0  0
 18 21  1  0  0  0  0
 19 20  1  0  0  0  0
 19 42  1  0  0  0  0
 19 43  1  0  0  0  0
 20 44  1  0  0  0  0
 20 45  1  0  0  0  0
 21 22  1  0  0  0  0
 21 46  1  0  0  0  0
 21 47  1  0  0  0  0
 22 23  1  0  0  0  0
 22 48  1  0  0  0  0
 22 49  1  0  0  0  0
 23 24  1  0  0  0  0
 24 25  1  0  0  0  0
 24 50  1  0  0  0  0
 24 51  1  0  0  0  0
 25 26  1  0  0  0  0
 25 27  2  0  0  0  0
 26 52  1  0  0  0  0
M  END
>  <UNIQUE_SMILES>
Clc1ccc(C(N2CCN(CCOCC(=O)O)CC2)c2ccccc2)cc1

>  <USER_SUPPLIED_SMILES>
Clc1ccc(C(N2CCN(CCOCC(=O)O)CC2)c2ccccc2)cc1

$$$$
C24H28F2N2O4
  MOE2018           3D

 60 62  0  0  1  0  0  0  0  0999 V2000
   -3.6450    3.1410    1.6010 F   0  0  0  0  0  0  0  0  0  0  0  0
   -4.5910    2.7750    0.6370 C   0  0  0  0  0  0  0  0  0  0  0  0
   -4.2710    3.3810   -0.5830 F   0  0  0  0  0  0  0  0  0  0  0  0
   -4.5860    1.3550    0.4790 O   0  0  0  0  0  0  0  0  0  0  0  0
   -3.3320    1.0080    0.0820 C   0  0  0  0  0  0  0  0  0  0  0  0
   -2.3630    1.9830   -0.0890 C   0  0  0  0  0  0  0  0  0  0  0  0
   -1.0900    1.6280   -0.4930 C   0  0  0  0  0  0  0  0  0  0  0  0
   -0.7800    0.3020   -0.7280 C   0  0  0  0  0  0  0  0  0  0  0  0
   -1.7420   -0.6760   -0.5590 C   0  0  0  0  0  0  0  0  0  0  0  0
   -3.0190   -0.3280   -0.1490 C   0  0  0  0  0  0  0  0  0  0  0  0
   -3.9670   -1.2890    0.0180 O   0  0  0  0  0  0  0  0  0  0  0  0
   -3.3140   -2.5480   -0.1560 C   0  0  0  0  0  0  0  0  0  0  0  0
   -4.1210   -3.6420    0.5450 C   0  0  0  0  0  0  0  0  0  0  0  0
   -3.2100   -2.8670   -1.6490 C   0  0  0  0  0  0  0  0  0  0  0  0
    0.6100   -0.0790   -1.1690 C   0  0  3  0  0  0  0  0  0  0  0  0
    1.5900    0.9660   -0.7010 C   0  0  0  0  0  0  0  0  0  0  0  0
    2.4060    1.5720   -1.5800 C   0  0  0  0  0  0  0  0  0  0  0  0
    3.2960    2.5260   -1.1120 N   0  0  0  0  0  0  0  0  0  0  0  0
    3.8370    2.3780    0.2450 C   0  0  3  0  0  0  0  0  0  0  0  0
    2.7150    2.0030    1.1820 C   0  0  0  0  0  0  0  0  0  0  0  0
    1.6570    1.3370    0.7180 C   0  0  0  0  0  0  0  0  0  0  0  0
    4.9020    1.2790    0.2560 C   0  0  0  0  0  0  0  0  0  0  0  0
    4.3160    0.0440   -0.1600 O   0  0  0  0  0  0  0  0  0  0  0  0
    6.0320    1.6560   -0.7040 C   0  0  0  0  0  0  0  0  0  0  0  0
    5.4640    1.1270    1.6700 C   0  0  0  0  0  0  0  0  0  0  0  0
    0.9780   -1.4140   -0.5730 C   0  0  0  0  0  0  0  0  0  0  0  0
    0.8920   -1.5980    0.8200 C   0  0  0  0  0  0  0  0  0  0  0  0
    1.1870   -2.7130    1.4310 N   0  0  0  0  0  0  0  0  0  0  0  0
    1.6070   -3.8040    0.7780 C   0  0  0  0  0  0  0  0  0  0  0  0
    1.8730   -4.8260    1.3780 O   0  0  0  0  0  0  0  0  0  0  0  0
    1.7400   -3.7300   -0.7300 C   0  0  0  0  0  0  0  0  0  0  0  0
    1.3760   -2.4090   -1.3800 C   0  0  0  0  0  0  0  0  0  0  0  0
   -5.5800    3.1020    0.9560 H   0  0  0  0  0  0  0  0  0  0  0  0
   -2.6030    3.0200    0.0930 H   0  0  0  0  0  0  0  0  0  0  0  0
   -0.3350    2.3900   -0.6260 H   0  0  0  0  0  0  0  0  0  0  0  0
   -1.4980   -1.7120   -0.7430 H   0  0  0  0  0  0  0  0  0  0  0  0
   -2.3140   -2.5010    0.2760 H   0  0  0  0  0  0  0  0  0  0  0  0
   -5.1210   -3.6890    0.1130 H   0  0  0  0  0  0  0  0  0  0  0  0
   -3.6230   -4.6030    0.4120 H   0  0  0  0  0  0  0  0  0  0  0  0
   -4.1950   -3.4150    1.6080 H   0  0  0  0  0  0  0  0  0  0  0  0
   -4.2100   -2.9140   -2.0810 H   0  0  0  0  0  0  0  0  0  0  0  0
   -2.6350   -2.0880   -2.1480 H   0  0  0  0  0  0  0  0  0  0  0  0
   -2.7120   -3.8280   -1.7810 H   0  0  0  0  0  0  0  0  0  0  0  0
    0.6410   -0.1460   -2.2560 H   0  0  0  0  0  0  0  0  0  0  0  0
    2.3680    1.3220   -2.6300 H   0  0  0  0  0  0  0  0  0  0  0  0
    3.5580    3.2750   -1.6700 H   0  0  0  0  0  0  0  0  0  0  0  0
    4.2800    3.3210    0.5660 H   0  0  0  0  0  0  0  0  0  0  0  0
    2.7670    2.2770    2.2250 H   0  0  0  0  0  0  0  0  0  0  0  0
    0.8560    1.0630    1.3880 H   0  0  0  0  0  0  0  0  0  0  0  0
    5.0190   -0.6200   -0.1390 H   0  0  0  0  0  0  0  0  0  0  0  0
    6.4790    2.5980   -0.3880 H   0  0  0  0  0  0  0  0  0  0  0  0
    6.7910    0.8730   -0.6970 H   0  0  0  0  0  0  0  0  0  0  0  0
    5.6320    1.7640   -1.7120 H   0  0  0  0  0  0  0  0  0  0  0  0
    4.6580    0.8590    2.3540 H   0  0  0  0  0  0  0  0  0  0  0  0
    6.2220    0.3440    1.6780 H   0  0  0  0  0  0  0  0  0  0  0  0
    5.9110    2.0690    1.9870 H   0  0  0  0  0  0  0  0  0  0  0  0
    0.5610   -0.7640    1.4210 H   0  0  0  0  0  0  0  0  0  0  0  0
    2.7720   -3.9640   -0.9890 H   0  0  0  0  0  0  0  0  0  0  0  0
    1.1030   -4.5020   -1.1630 H   0  0  0  0  0  0  0  0  0  0  0  0
    1.4430   -2.2720   -2.4500 H   0  0  0  0  0  0  0  0  0  0  0  0
  1  2  1  0  0  0  0
  2  3  1  0  0  0  0
  2  4  1  0  0  0  0
  2 33  1  0  0  0  0
  4  5  1  0  0  0  0
  5  6  1  0  0  0  0
  5 10  2  0  0  0  0
  6  7  2  0  0  0  0
  6 34  1  0  0  0  0
  7  8  1  0  0  0  0
  7 35  1  0  0  0  0
  8  9  2  0  0  0  0
  8 15  1  0  0  0  0
  9 10  1  0  0  0  0
  9 36  1  0  0  0  0
 10 11  1  0  0  0  0
 11 12  1  0  0  0  0
 12 13  1  0  0  0  0
 12 14  1  0  0  0  0
 12 37  1  0  0  0  0
 13 38  1  0  0  0  0
 13 39  1  0  0  0  0
 13 40  1  0  0  0  0
 14 41  1  0  0  0  0
 14 42  1  0  0  0  0
 14 43  1  0  0  0  0
 15 16  1  0  0  0  0
 15 26  1  0  0  0  0
 15 44  1  0  0  0  0
 16 17  2  0  0  0  0
 16 21  1  0  0  0  0
 17 18  1  0  0  0  0
 17 45  1  0  0  0  0
 18 19  1  0  0  0  0
 18 46  1  0  0  0  0
 19 20  1  0  0  0  0
 19 22  1  0  0  0  0
 19 47  1  0  0  0  0
 20 21  2  0  0  0  0
 20 48  1  0  0  0  0
 21 49  1  0  0  0  0
 22 23  1  0  0  0  0
 22 24  1  0  0  0  0
 22 25  1  0  0  0  0
 23 50  1  0  0  0  0
 24 51  1  0  0  0  0
 24 52  1  0  0  0  0
 24 53  1  0  0  0  0
 25 54  1  0  0  0  0
 25 55  1  0  0  0  0
 25 56  1  0  0  0  0
 26 27  1  0  0  0  0
 26 32  2  0  0  0  0
 27 28  2  0  0  0  0
 27 57  1  0  0  0  0
 28 29  1  0  0  0  0
 29 30  2  0  0  0  0
 29 31  1  0  0  0  0
 31 32  1  0  0  0  0
 31 58  1  0  0  0  0
 31 59  1  0  0  0  0
 32 60  1  0  0  0  0
M  END
>  <UNIQUE_SMILES>
FC(F)Oc1c(OC(C)C)cc(C(C2=CNC(C(O)(C)C)C=C2)C=2C=NC(=O)CC=2)cc1

>  <USER_SUPPLIED_SMILES>
FC(F)Oc1c(OC(C)C)cc(C(C2=CNC(C(O)(C)C)C=C2)C=2C=NC(=O)CC=2)cc1

$$$$
C16H18N4S
  MOE2018           3D

 39 42  0  0  0  0  0  0  0  0999 V2000
    0.3780    1.5410   -0.1330 N   0  0  0  0  0  0  0  0  0  0  0  0
   -0.5130    0.6070   -0.1780 C   0  0  0  0  0  0  0  0  0  0  0  0
   -0.1930   -0.8390   -0.1090 C   0  0  0  0  0  0  0  0  0  0  0  0
    0.8780   -1.2820    0.6670 C   0  0  0  0  0  0  0  0  0  0  0  0
    1.7610   -0.4790    1.3640 N   0  0  0  0  0  0  0  0  0  0  0  0
    2.4470    0.4980    0.6050 C   0  0  0  0  0  0  0  0  0  0  0  0
    1.7360    1.4460   -0.1420 C   0  0  0  0  0  0  0  0  0  0  0  0
    2.4550    2.3600   -0.9200 C   0  0  0  0  0  0  0  0  0  0  0  0
    3.8360    2.3420   -0.9240 C   0  0  0  0  0  0  0  0  0  0  0  0
    4.5260    1.4220   -0.1590 C   0  0  0  0  0  0  0  0  0  0  0  0
    3.8280    0.4990    0.6050 C   0  0  0  0  0  0  0  0  0  0  0  0
    0.8410   -2.9940    0.5220 S   0  0  0  0  0  0  0  0  0  0  0  0
   -0.5440   -3.1580   -0.5890 C   0  0  0  0  0  0  0  0  0  0  0  0
   -0.9300   -1.8850   -0.7900 C   0  0  0  0  0  0  0  0  0  0  0  0
   -1.1370   -4.4180   -1.1650 C   0  0  0  0  0  0  0  0  0  0  0  0
   -1.8340    0.9750   -0.2950 N   0  0  0  0  0  0  0  0  0  0  0  0
   -2.9110   -0.0240   -0.2090 C   0  0  0  0  0  0  0  0  0  0  0  0
   -3.9670    0.4880    0.7770 C   0  0  0  0  0  0  0  0  0  0  0  0
   -4.4370    1.8110    0.3500 N   0  0  0  0  0  0  0  0  0  0  0  0
   -3.3130    2.7430    0.4940 C   0  0  0  0  0  0  0  0  0  0  0  0
   -2.2150    2.3810   -0.5050 C   0  0  0  0  0  0  0  0  0  0  0  0
    1.9010   -0.5790    2.3190 H   0  0  0  0  0  0  0  0  0  0  0  0
    1.9270    3.0840   -1.5230 H   0  0  0  0  0  0  0  0  0  0  0  0
    4.3800    3.0530   -1.5280 H   0  0  0  0  0  0  0  0  0  0  0  0
    5.6060    1.4220   -0.1560 H   0  0  0  0  0  0  0  0  0  0  0  0
    4.3670   -0.2220    1.2020 H   0  0  0  0  0  0  0  0  0  0  0  0
   -1.7610   -1.6510   -1.4380 H   0  0  0  0  0  0  0  0  0  0  0  0
   -0.5830   -5.2820   -0.7970 H   0  0  0  0  0  0  0  0  0  0  0  0
   -2.1810   -4.5000   -0.8610 H   0  0  0  0  0  0  0  0  0  0  0  0
   -1.0770   -4.3840   -2.2520 H   0  0  0  0  0  0  0  0  0  0  0  0
   -3.3630   -0.1630   -1.1910 H   0  0  0  0  0  0  0  0  0  0  0  0
   -2.5060   -0.9710    0.1470 H   0  0  0  0  0  0  0  0  0  0  0  0
   -4.8070   -0.2060    0.8010 H   0  0  0  0  0  0  0  0  0  0  0  0
   -3.5290    0.5610    1.7720 H   0  0  0  0  0  0  0  0  0  0  0  0
   -4.6350    1.7440   -0.6370 H   0  0  0  0  0  0  0  0  0  0  0  0
   -3.6580    3.7590    0.3030 H   0  0  0  0  0  0  0  0  0  0  0  0
   -2.9150    2.6790    1.5060 H   0  0  0  0  0  0  0  0  0  0  0  0
   -1.3490    3.0250   -0.3480 H   0  0  0  0  0  0  0  0  0  0  0  0
   -2.5860    2.5070   -1.5220 H   0  0  0  0  0  0  0  0  0  0  0  0
  1  2  2  0  0  0  0
  1  7  1  0  0  0  0
  2  3  1  0  0  0  0
  2 16  1  0  0  0  0
  3  4  2  0  0  0  0
  3 14  1  0  0  0  0
  4  5  1  0  0  0  0
  4 12  1  0  0  0  0
  5  6  1  0  0  0  0
  5 22  1  0  0  0  0
  6  7  1  0  0  0  0
  6 11  2  0  0  0  0
  7  8  2  0  0  0  0
  8  9  1  0  0  0  0
  8 23  1  0  0  0  0
  9 10  2  0  0  0  0
  9 24  1  0  0  0  0
 10 11  1  0  0  0  0
 10 25  1  0  0  0  0
 11 26  1  0  0  0  0
 12 13  1  0  0  0  0
 13 14  2  0  0  0  0
 13 15  1  0  0  0  0
 14 27  1  0  0  0  0
 15 28  1  0  0  0  0
 15 29  1  0  0  0  0
 15 30  1  0  0  0  0
 16 17  1  0  0  0  0
 16 21  1  0  0  0  0
 17 18  1  0  0  0  0
 17 31  1  0  0  0  0
 17 32  1  0  0  0  0
 18 19  1  0  0  0  0
 18 33  1  0  0  0  0
 18 34  1  0  0  0  0
 19 20  1  0  0  0  0
 19 35  1  0  0  0  0
 20 21  1  0  0  0  0
 20 36  1  0  0  0  0
 20 37  1  0  0  0  0
 21 38  1  0  0  0  0
 21 39  1  0  0  0  0
M  END
>  <UNIQUE_SMILES>
Cc1sc2Nc3c(N=C(N4CCNCC4)c2c1)cccc3

>  <USER_SUPPLIED_SMILES>
Cc1sc2Nc3c(N=C(N4CCNCC4)c2c1)cccc3

$$$$
C17H17ClN4
  MOE2018           3D

 39 42  0  0  0  0  0  0  0  0999 V2000
    0.1150   -0.9360   -0.0830 N   0  0  0  0  0  0  0  0  0  0  0  0
   -0.9820   -0.3080    0.1580 C   0  0  0  0  0  0  0  0  0  0  0  0
   -1.1400    1.1460    0.3040 C   0  0  0  0  0  0  0  0  0  0  0  0
   -0.4280    2.0260   -0.5220 C   0  0  0  0  0  0  0  0  0  0  0  0
    0.5050    1.5270   -1.4330 N   0  0  0  0  0  0  0  0  0  0  0  0
    1.5820    0.7740   -0.9400 C   0  0  0  0  0  0  0  0  0  0  0  0
    1.3650   -0.4130   -0.2330 C   0  0  0  0  0  0  0  0  0  0  0  0
    2.4560   -1.0980    0.3050 C   0  0  0  0  0  0  0  0  0  0  0  0
    3.7400   -0.6280    0.1020 C   0  0  0  0  0  0  0  0  0  0  0  0
    3.9510    0.5250   -0.6330 C   0  0  0  0  0  0  0  0  0  0  0  0
    2.8740    1.2250   -1.1510 C   0  0  0  0  0  0  0  0  0  0  0  0
    5.0930   -1.4850    0.7720 Cl  0  0  0  0  0  0  0  0  0  0  0  0
   -0.6300    3.3930   -0.4130 C   0  0  0  0  0  0  0  0  0  0  0  0
   -1.5050    3.8900    0.5350 C   0  0  0  0  0  0  0  0  0  0  0  0
   -2.1850    3.0270    1.3770 C   0  0  0  0  0  0  0  0  0  0  0  0
   -2.0100    1.6620    1.2660 C   0  0  0  0  0  0  0  0  0  0  0  0
   -2.1180   -1.0730    0.2910 N   0  0  0  0  0  0  0  0  0  0  0  0
   -3.4440   -0.4470    0.4200 C   0  0  0  0  0  0  0  0  0  0  0  0
   -4.3960   -1.1240   -0.5720 C   0  0  0  0  0  0  0  0  0  0  0  0
   -4.4130   -2.5700   -0.3280 N   0  0  0  0  0  0  0  0  0  0  0  0
   -3.0850   -3.0900   -0.6750 C   0  0  0  0  0  0  0  0  0  0  0  0
   -2.0470   -2.5430    0.3040 C   0  0  0  0  0  0  0  0  0  0  0  0
    0.4110    1.6970   -2.3840 H   0  0  0  0  0  0  0  0  0  0  0  0
    2.2970   -1.9980    0.8800 H   0  0  0  0  0  0  0  0  0  0  0  0
    4.9570    0.8800   -0.8030 H   0  0  0  0  0  0  0  0  0  0  0  0
    3.0430    2.1260   -1.7220 H   0  0  0  0  0  0  0  0  0  0  0  0
   -0.1020    4.0700   -1.0690 H   0  0  0  0  0  0  0  0  0  0  0  0
   -1.6590    4.9550    0.6190 H   0  0  0  0  0  0  0  0  0  0  0  0
   -2.8550    3.4230    2.1250 H   0  0  0  0  0  0  0  0  0  0  0  0
   -2.5450    0.9940    1.9230 H   0  0  0  0  0  0  0  0  0  0  0  0
   -3.8160   -0.5810    1.4360 H   0  0  0  0  0  0  0  0  0  0  0  0
   -3.3720    0.6160    0.1920 H   0  0  0  0  0  0  0  0  0  0  0  0
   -5.4010   -0.7220   -0.4420 H   0  0  0  0  0  0  0  0  0  0  0  0
   -4.0580   -0.9310   -1.5900 H   0  0  0  0  0  0  0  0  0  0  0  0
   -4.5220   -2.6960    0.6680 H   0  0  0  0  0  0  0  0  0  0  0  0
   -3.0960   -4.1780   -0.6240 H   0  0  0  0  0  0  0  0  0  0  0  0
   -2.8270   -2.7770   -1.6870 H   0  0  0  0  0  0  0  0  0  0  0  0
   -1.0510   -2.8660    0.0010 H   0  0  0  0  0  0  0  0  0  0  0  0
   -2.2620   -2.9070    1.3080 H   0  0  0  0  0  0  0  0  0  0  0  0
  1  2  2  0  0  0  0
  1  7  1  0  0  0  0
  2  3  1  0  0  0  0
  2 17  1  0  0  0  0
  3  4  1  0  0  0  0
  3 16  2  0  0  0  0
  4  5  1  0  0  0  0
  4 13  2  0  0  0  0
  5  6  1  0  0  0  0
  5 23  1  0  0  0  0
  6  7  1  0  0  0  0
  6 11  2  0  0  0  0
  7  8  2  0  0  0  0
  8  9  1  0  0  0  0
  8 24  1  0  0  0  0
  9 10  2  0  0  0  0
  9 12  1  0  0  0  0
 10 11  1  0  0  0  0
 10 25  1  0  0  0  0
 11 26  1  0  0  0  0
 13 14  1  0  0  0  0
 13 27  1  0  0  0  0
 14 15  2  0  0  0  0
 14 28  1  0  0  0  0
 15 16  1  0  0  0  0
 15 29  1  0  0  0  0
 16 30  1  0  0  0  0
 17 18  1  0  0  0  0
 17 22  1  0  0  0  0
 18 19  1  0  0  0  0
 18 31  1  0  0  0  0
 18 32  1  0  0  0  0
 19 20  1  0  0  0  0
 19 33  1  0  0  0  0
 19 34  1  0  0  0  0
 20 21  1  0  0  0  0
 20 35  1  0  0  0  0
 21 22  1  0  0  0  0
 21 36  1  0  0  0  0
 21 37  1  0  0  0  0
 22 38  1  0  0  0  0
 22 39  1  0  0  0  0
M  END
>  <UNIQUE_SMILES>
Clc1cc2N=C(N3CCNCC3)c3c(Nc2cc1)cccc3

>  <USER_SUPPLIED_SMILES>
Clc1cc2N=C(N3CCNCC3)c3c(Nc2cc1)cccc3

$$$$
C17H18N2O6
  MOE2018           3D

 43 44  0  0  0  0  0  0  0  0999 V2000
   -0.0140   -0.7320   -0.7730 C   0  0  0  0  0  0  0  0  0  0  0  0
    0.1640   -2.0670   -0.4620 C   0  0  0  0  0  0  0  0  0  0  0  0
    0.2310   -3.0100   -1.4710 C   0  0  0  0  0  0  0  0  0  0  0  0
    0.1190   -2.6170   -2.7920 C   0  0  0  0  0  0  0  0  0  0  0  0
   -0.0600   -1.2820   -3.1030 C   0  0  0  0  0  0  0  0  0  0  0  0
   -0.1260   -0.3400   -2.0940 C   0  0  0  0  0  0  0  0  0  0  0  0
    0.2840   -2.4880    0.9530 N   0  3  0  0  0  0  0  0  0  0  0  0
    0.9480   -1.8260    1.7300 O   0  5  0  0  0  0  0  0  0  0  0  0
   -0.2800   -3.4960    1.3380 O   0  0  0  0  0  0  0  0  0  0  0  0
   -0.0940    0.2940    0.3270 C   0  0  0  0  0  0  0  0  0  0  0  0
    1.1110    1.1900    0.2560 C   0  0  0  0  0  0  0  0  0  0  0  0
    1.0280    2.4380   -0.2340 C   0  0  0  0  0  0  0  0  0  0  0  0
   -0.1650    2.9380   -0.6800 N   0  0  0  0  0  0  0  0  0  0  0  0
   -1.3420    2.3430   -0.3160 C   0  0  0  0  0  0  0  0  0  0  0  0
   -1.3580    1.0900    0.1710 C   0  0  0  0  0  0  0  0  0  0  0  0
   -2.5920    0.5090    0.5460 C   0  0  0  0  0  0  0  0  0  0  0  0
   -3.6240    1.1420    0.4250 O   0  0  0  0  0  0  0  0  0  0  0  0
   -2.6250   -0.7480    1.0360 O   0  0  0  0  0  0  0  0  0  0  0  0
   -3.9940   -1.0460    1.3170 C   0  0  0  0  0  0  0  0  0  0  0  0
   -2.6360    3.1010   -0.4630 C   0  0  0  0  0  0  0  0  0  0  0  0
    2.2640    3.2980   -0.2940 C   0  0  0  0  0  0  0  0  0  0  0  0
    2.3580    0.7080    0.7160 C   0  0  0  0  0  0  0  0  0  0  0  0
    2.5970    0.6780    1.9090 O   0  0  0  0  0  0  0  0  0  0  0  0
    3.2850    0.2830   -0.1680 O   0  0  0  0  0  0  0  0  0  0  0  0
    4.4200   -0.1350    0.5920 C   0  0  0  0  0  0  0  0  0  0  0  0
    0.3720   -4.0520   -1.2270 H   0  0  0  0  0  0  0  0  0  0  0  0
    0.1720   -3.3530   -3.5800 H   0  0  0  0  0  0  0  0  0  0  0  0
   -0.1470   -0.9760   -4.1350 H   0  0  0  0  0  0  0  0  0  0  0  0
   -0.2670    0.7030   -2.3370 H   0  0  0  0  0  0  0  0  0  0  0  0
   -0.1070   -0.2140    1.2920 H   0  0  0  0  0  0  0  0  0  0  0  0
   -0.1770    3.7180   -1.2560 H   0  0  0  0  0  0  0  0  0  0  0  0
   -4.0710   -2.0560    1.7180 H   0  0  0  0  0  0  0  0  0  0  0  0
   -4.3780   -0.3350    2.0490 H   0  0  0  0  0  0  0  0  0  0  0  0
   -4.5770   -0.9740    0.4000 H   0  0  0  0  0  0  0  0  0  0  0  0
   -2.4330    4.0910   -0.8700 H   0  0  0  0  0  0  0  0  0  0  0  0
   -3.3000    2.5600   -1.1380 H   0  0  0  0  0  0  0  0  0  0  0  0
   -3.1130    3.1990    0.5120 H   0  0  0  0  0  0  0  0  0  0  0  0
    2.8180    3.0750   -1.2060 H   0  0  0  0  0  0  0  0  0  0  0  0
    1.9760    4.3490   -0.2920 H   0  0  0  0  0  0  0  0  0  0  0  0
    2.8920    3.0920    0.5730 H   0  0  0  0  0  0  0  0  0  0  0  0
    5.1990   -0.4890   -0.0830 H   0  0  0  0  0  0  0  0  0  0  0  0
    4.7980    0.7050    1.1740 H   0  0  0  0  0  0  0  0  0  0  0  0
    4.1290   -0.9420    1.2660 H   0  0  0  0  0  0  0  0  0  0  0  0
  1  2  1  0  0  0  0
  1  6  2  0  0  0  0
  1 10  1  0  0  0  0
  2  3  2  0  0  0  0
  2  7  1  0  0  0  0
  3  4  1  0  0  0  0
  3 26  1  0  0  0  0
  4  5  2  0  0  0  0
  4 27  1  0  0  0  0
  5  6  1  0  0  0  0
  5 28  1  0  0  0  0
  6 29  1  0  0  0  0
  7  8  1  0  0  0  0
  7  9  2  0  0  0  0
 10 11  1  0  0  0  0
 10 15  1  0  0  0  0
 10 30  1  0  0  0  0
 11 12  2  0  0  0  0
 11 22  1  0  0  0  0
 12 13  1  0  0  0  0
 12 21  1  0  0  0  0
 13 14  1  0  0  0  0
 13 31  1  0  0  0  0
 14 15  2  0  0  0  0
 14 20  1  0  0  0  0
 15 16  1  0  0  0  0
 16 17  2  0  0  0  0
 16 18  1  0  0  0  0
 18 19  1  0  0  0  0
 19 32  1  0  0  0  0
 19 33  1  0  0  0  0
 19 34  1  0  0  0  0
 20 35  1  0  0  0  0
 20 36  1  0  0  0  0
 20 37  1  0  0  0  0
 21 38  1  0  0  0  0
 21 39  1  0  0  0  0
 21 40  1  0  0  0  0
 22 23  2  0  0  0  0
 22 24  1  0  0  0  0
 24 25  1  0  0  0  0
 25 41  1  0  0  0  0
 25 42  1  0  0  0  0
 25 43  1  0  0  0  0
M  CHG  1   7   1
M  CHG  1   8  -1
M  END
>  <UNIQUE_SMILES>
O=[N+]([O-])c1c(C2C(C(=O)OC)=C(C)NC(C)=C2C(=O)OC)cccc1

>  <USER_SUPPLIED_SMILES>
O=[N+]([O-])c1c(C2C(C(=O)OC)=C(C)NC(C)=C2C(=O)OC)cccc1

$$$$
C22H30N6O4S
  MOE2018           3D

 63 66  0  0  0  0  0  0  0  0999 V2000
   -0.3320   -0.4950    0.7670 C   0  0  0  0  0  0  0  0  0  0  0  0
   -0.4680   -1.8900    0.7640 C   0  0  0  0  0  0  0  0  0  0  0  0
   -1.6930   -2.4550    0.6120 O   0  0  0  0  0  0  0  0  0  0  0  0
   -1.5020   -3.8700    0.6520 C   0  0  0  0  0  0  0  0  0  0  0  0
   -2.8520   -4.5710    0.4850 C   0  0  0  0  0  0  0  0  0  0  0  0
    0.6530   -2.6900    0.9190 C   0  0  0  0  0  0  0  0  0  0  0  0
    1.8990   -2.1140    1.0740 C   0  0  0  0  0  0  0  0  0  0  0  0
    2.0380   -0.7360    1.0770 C   0  0  0  0  0  0  0  0  0  0  0  0
    0.9330    0.0740    0.9240 C   0  0  0  0  0  0  0  0  0  0  0  0
    3.6340   -0.0160    1.2760 S   0  0  0  0  0  0  0  0  0  0  0  0
    4.4260   -1.0040    1.9190 O   0  0  0  0  0  0  0  0  0  0  0  0
    4.2850    0.1700   -0.2350 N   0  0  0  0  0  0  0  0  0  0  0  0
    4.0740    1.4050   -1.0070 C   0  0  0  0  0  0  0  0  0  0  0  0
    5.4320    1.8860   -1.5310 C   0  0  0  0  0  0  0  0  0  0  0  0
    6.0630    0.8160   -2.3120 N   0  0  0  0  0  0  0  0  0  0  0  0
    6.3880   -0.2730   -1.3840 C   0  0  0  0  0  0  0  0  0  0  0  0
    5.0990   -0.8930   -0.8470 C   0  0  0  0  0  0  0  0  0  0  0  0
    7.3420    1.3490   -2.8020 C   0  0  0  0  0  0  0  0  0  0  0  0
    3.4050    1.3000    1.7620 O   0  0  0  0  0  0  0  0  0  0  0  0
   -1.5180    0.3670    0.5970 C   0  0  0  0  0  0  0  0  0  0  0  0
   -1.6200    1.5100    1.3420 N   0  0  0  0  0  0  0  0  0  0  0  0
   -2.6950    2.3180    1.2090 C   0  0  0  0  0  0  0  0  0  0  0  0
   -3.7010    1.9510    0.2850 C   0  0  0  0  0  0  0  0  0  0  0  0
   -3.5440    0.7700   -0.4510 C   0  0  0  0  0  0  0  0  0  0  0  0
   -2.4400    0.0170   -0.2660 N   0  0  0  0  0  0  0  0  0  0  0  0
   -4.6750    0.6490   -1.2810 C   0  0  0  0  0  0  0  0  0  0  0  0
   -5.4600    1.6720   -1.0710 N   0  0  0  0  0  0  0  0  0  0  0  0
   -4.8890    2.5070   -0.1020 N   0  0  0  0  0  0  0  0  0  0  0  0
   -5.4630    3.7550    0.4070 C   0  0  0  0  0  0  0  0  0  0  0  0
   -4.9360   -0.4740   -2.2520 C   0  0  0  0  0  0  0  0  0  0  0  0
   -5.7060   -1.5900   -1.5440 C   0  0  0  0  0  0  0  0  0  0  0  0
   -5.9720   -2.7300   -2.5290 C   0  0  0  0  0  0  0  0  0  0  0  0
   -2.7950    3.3380    1.8680 O   0  0  0  0  0  0  0  0  0  0  0  0
   -0.8340   -4.1700   -0.1550 H   0  0  0  0  0  0  0  0  0  0  0  0
   -1.0640   -4.1510    1.6100 H   0  0  0  0  0  0  0  0  0  0  0  0
   -2.7070   -5.6510    0.5160 H   0  0  0  0  0  0  0  0  0  0  0  0
   -3.5200   -4.2710    1.2920 H   0  0  0  0  0  0  0  0  0  0  0  0
   -3.2910   -4.2910   -0.4730 H   0  0  0  0  0  0  0  0  0  0  0  0
    0.5530   -3.7650    0.9180 H   0  0  0  0  0  0  0  0  0  0  0  0
    2.7700   -2.7410    1.1930 H   0  0  0  0  0  0  0  0  0  0  0  0
    1.0460    1.1490    0.9270 H   0  0  0  0  0  0  0  0  0  0  0  0
    3.4070    1.2050   -1.8450 H   0  0  0  0  0  0  0  0  0  0  0  0
    3.6380    2.1700   -0.3640 H   0  0  0  0  0  0  0  0  0  0  0  0
    5.2870    2.7610   -2.1640 H   0  0  0  0  0  0  0  0  0  0  0  0
    6.0730    2.1480   -0.6900 H   0  0  0  0  0  0  0  0  0  0  0  0
    6.9690   -1.0340   -1.9050 H   0  0  0  0  0  0  0  0  0  0  0  0
    6.9710    0.1220   -0.5520 H   0  0  0  0  0  0  0  0  0  0  0  0
    5.3390   -1.6500   -0.1000 H   0  0  0  0  0  0  0  0  0  0  0  0
    4.5420   -1.3480   -1.6660 H   0  0  0  0  0  0  0  0  0  0  0  0
    7.9660    1.6310   -1.9540 H   0  0  0  0  0  0  0  0  0  0  0  0
    7.8510    0.5870   -3.3910 H   0  0  0  0  0  0  0  0  0  0  0  0
    7.1560    2.2250   -3.4230 H   0  0  0  0  0  0  0  0  0  0  0  0
   -0.9170    1.7420    1.9700 H   0  0  0  0  0  0  0  0  0  0  0  0
   -6.0920    3.5390    1.2710 H   0  0  0  0  0  0  0  0  0  0  0  0
   -4.6610    4.4310    0.7010 H   0  0  0  0  0  0  0  0  0  0  0  0
   -6.0650    4.2220   -0.3730 H   0  0  0  0  0  0  0  0  0  0  0  0
   -5.5250   -0.1000   -3.0890 H   0  0  0  0  0  0  0  0  0  0  0  0
   -3.9870   -0.8640   -2.6200 H   0  0  0  0  0  0  0  0  0  0  0  0
   -5.1180   -1.9640   -0.7060 H   0  0  0  0  0  0  0  0  0  0  0  0
   -6.6550   -1.2000   -1.1760 H   0  0  0  0  0  0  0  0  0  0  0  0
   -6.5210   -3.5260   -2.0250 H   0  0  0  0  0  0  0  0  0  0  0  0
   -6.5610   -2.3570   -3.3670 H   0  0  0  0  0  0  0  0  0  0  0  0
   -5.0230   -3.1200   -2.8980 H   0  0  0  0  0  0  0  0  0  0  0  0
  1  2  1  0  0  0  0
  1  9  2  0  0  0  0
  1 20  1  0  0  0  0
  2  3  1  0  0  0  0
  2  6  2  0  0  0  0
  3  4  1  0  0  0  0
  4  5  1  0  0  0  0
  4 34  1  0  0  0  0
  4 35  1  0  0  0  0
  5 36  1  0  0  0  0
  5 37  1  0  0  0  0
  5 38  1  0  0  0  0
  6  7  1  0  0  0  0
  6 39  1  0  0  0  0
  7  8  2  0  0  0  0
  7 40  1  0  0  0  0
  8  9  1  0  0  0  0
  8 10  1  0  0  0  0
  9 41  1  0  0  0  0
 10 11  2  0  0  0  0
 10 12  1  0  0  0  0
 10 19  2  0  0  0  0
 12 13  1  0  0  0  0
 12 17  1  0  0  0  0
 13 14  1  0  0  0  0
 13 42  1  0  0  0  0
 13 43  1  0  0  0  0
 14 15  1  0  0  0  0
 14 44  1  0  0  0  0
 14 45  1  0  0  0  0
 15 16  1  0  0  0  0
 15 18  1  0  0  0  0
 16 17  1  0  0  0  0
 16 46  1  0  0  0  0
 16 47  1  0  0  0  0
 17 48  1  0  0  0  0
 17 49  1  0  0  0  0
 18 50  1  0  0  0  0
 18 51  1  0  0  0  0
 18 52  1  0  0  0  0
 20 21  1  0  0  0  0
 20 25  2  0  0  0  0
 21 22  1  0  0  0  0
 21 53  1  0  0  0  0
 22 23  1  0  0  0  0
 22 33  2  0  0  0  0
 23 24  2  0  0  0  0
 23 28  1  0  0  0  0
 24 25  1  0  0  0  0
 24 26  1  0  0  0  0
 26 27  2  0  0  0  0
 26 30  1  0  0  0  0
 27 28  1  0  0  0  0
 28 29  1  0  0  0  0
 29 54  1  0  0  0  0
 29 55  1  0  0  0  0
 29 56  1  0  0  0  0
 30 31  1  0  0  0  0
 30 57  1  0  0  0  0
 30 58  1  0  0  0  0
 31 32  1  0  0  0  0
 31 59  1  0  0  0  0
 31 60  1  0  0  0  0
 32 61  1  0  0  0  0
 32 62  1  0  0  0  0
 32 63  1  0  0  0  0
M  END
>  <UNIQUE_SMILES>
S(=O)(=O)(N1CCN(C)CC1)c1cc(c(OCC)cc1)C1=Nc2c(CCC)nn(C)c2C(=O)N1

>  <USER_SUPPLIED_SMILES>
S(=O)(=O)(N1CCN(C)CC1)c1cc(c(OCC)cc1)C1=Nc2c(CCC)nn(C)c2C(=O)N1

$$$$
C18H22N2
  MOE2018           3D

 42 44  0  0  0  0  0  0  0  0999 V2000
    0.1590   -0.0290    0.6380 N   0  0  0  0  0  0  0  0  0  0  0  0
    1.0160   -1.1170    0.4930 C   0  0  0  0  0  0  0  0  0  0  0  0
    1.4610   -1.4090   -0.7700 C   0  0  0  0  0  0  0  0  0  0  0  0
    1.0630   -0.5450   -1.9270 C   0  0  0  0  0  0  0  0  0  0  0  0
    1.7130    0.8160   -1.8770 C   0  0  0  0  0  0  0  0  0  0  0  0
    1.2670    1.6760   -0.7210 C   0  0  0  0  0  0  0  0  0  0  0  0
    0.5440    1.2810    0.3810 C   0  0  0  0  0  0  0  0  0  0  0  0
    0.1690    2.2240    1.3460 C   0  0  0  0  0  0  0  0  0  0  0  0
    0.5390    3.5440    1.2260 C   0  0  0  0  0  0  0  0  0  0  0  0
    1.2910    3.9400    0.1350 C   0  0  0  0  0  0  0  0  0  0  0  0
    1.6470    3.0180   -0.8230 C   0  0  0  0  0  0  0  0  0  0  0  0
    2.2910   -2.5000   -0.9710 C   0  0  0  0  0  0  0  0  0  0  0  0
    2.6770   -3.2740    0.1090 C   0  0  0  0  0  0  0  0  0  0  0  0
    2.2400   -2.9660    1.3840 C   0  0  0  0  0  0  0  0  0  0  0  0
    1.4030   -1.8820    1.5840 C   0  0  0  0  0  0  0  0  0  0  0  0
   -1.2160   -0.2780    1.0760 C   0  0  0  0  0  0  0  0  0  0  0  0
   -2.1310   -0.3810   -0.1460 C   0  0  0  0  0  0  0  0  0  0  0  0
   -3.5840   -0.5180    0.3140 C   0  0  0  0  0  0  0  0  0  0  0  0
   -4.4610   -0.6160   -0.8600 N   0  0  0  0  0  0  0  0  0  0  0  0
   -5.8340   -0.7450   -0.3520 C   0  0  0  0  0  0  0  0  0  0  0  0
    1.3530   -1.0400   -2.8540 H   0  0  0  0  0  0  0  0  0  0  0  0
   -0.0200   -0.4200   -1.9190 H   0  0  0  0  0  0  0  0  0  0  0  0
    2.7930    0.6820   -1.8120 H   0  0  0  0  0  0  0  0  0  0  0  0
    1.4880    1.3410   -2.8060 H   0  0  0  0  0  0  0  0  0  0  0  0
   -0.4200    1.9110    2.1950 H   0  0  0  0  0  0  0  0  0  0  0  0
    0.2450    4.2630    1.9760 H   0  0  0  0  0  0  0  0  0  0  0  0
    1.5990    4.9700    0.0350 H   0  0  0  0  0  0  0  0  0  0  0  0
    2.2310    3.3380   -1.6730 H   0  0  0  0  0  0  0  0  0  0  0  0
    2.6340   -2.7460   -1.9660 H   0  0  0  0  0  0  0  0  0  0  0  0
    3.3240   -4.1250   -0.0450 H   0  0  0  0  0  0  0  0  0  0  0  0
    2.5510   -3.5710    2.2230 H   0  0  0  0  0  0  0  0  0  0  0  0
    1.0560   -1.6350    2.5760 H   0  0  0  0  0  0  0  0  0  0  0  0
   -1.2550   -1.2120    1.6380 H   0  0  0  0  0  0  0  0  0  0  0  0
   -1.5500    0.5420    1.7120 H   0  0  0  0  0  0  0  0  0  0  0  0
   -2.0260    0.5180   -0.7550 H   0  0  0  0  0  0  0  0  0  0  0  0
   -1.8520   -1.2540   -0.7360 H   0  0  0  0  0  0  0  0  0  0  0  0
   -3.6890   -1.4160    0.9220 H   0  0  0  0  0  0  0  0  0  0  0  0
   -3.8620    0.3550    0.9040 H   0  0  0  0  0  0  0  0  0  0  0  0
   -4.4110    0.2730   -1.3350 H   0  0  0  0  0  0  0  0  0  0  0  0
   -6.5260   -0.8210   -1.1900 H   0  0  0  0  0  0  0  0  0  0  0  0
   -5.9100   -1.6400    0.2650 H   0  0  0  0  0  0  0  0  0  0  0  0
   -6.0830    0.1310    0.2470 H   0  0  0  0  0  0  0  0  0  0  0  0
  1  2  1  0  0  0  0
  1  7  1  0  0  0  0
  1 16  1  0  0  0  0
  2  3  1  0  0  0  0
  2 15  2  0  0  0  0
  3  4  1  0  0  0  0
  3 12  2  0  0  0  0
  4  5  1  0  0  0  0
  4 21  1  0  0  0  0
  4 22  1  0  0  0  0
  5  6  1  0  0  0  0
  5 23  1  0  0  0  0
  5 24  1  0  0  0  0
  6  7  1  0  0  0  0
  6 11  2  0  0  0  0
  7  8  2  0  0  0  0
  8  9  1  0  0  0  0
  8 25  1  0  0  0  0
  9 10  2  0  0  0  0
  9 26  1  0  0  0  0
 10 11  1  0  0  0  0
 10 27  1  0  0  0  0
 11 28  1  0  0  0  0
 12 13  1  0  0  0  0
 12 29  1  0  0  0  0
 13 14  2  0  0  0  0
 13 30  1  0  0  0  0
 14 15  1  0  0  0  0
 14 31  1  0  0  0  0
 15 32  1  0  0  0  0
 16 17  1  0  0  0  0
 16 33  1  0  0  0  0
 16 34  1  0  0  0  0
 17 18  1  0  0  0  0
 17 35  1  0  0  0  0
 17 36  1  0  0  0  0
 18 19  1  0  0  0  0
 18 37  1  0  0  0  0
 18 38  1  0  0  0  0
 19 20  1  0  0  0  0
 19 39  1  0  0  0  0
 20 40  1  0  0  0  0
 20 41  1  0  0  0  0
 20 42  1  0  0  0  0
M  END
>  <UNIQUE_SMILES>
N(CCCN1c2c(cccc2)CCc2c1cccc2)C

>  <USER_SUPPLIED_SMILES>
N(CCCN1c2c(cccc2)CCc2c1cccc2)C

$$$$
C26H28Cl2N4O4
  MOE2018           3D

 64 68  0  0  1  0  0  0  0  0999 V2000
   -7.0800   -0.9610   -1.1060 C   0  0  0  0  0  0  0  0  0  0  0  0
   -6.3510   -1.4510   -0.0380 C   0  0  0  0  0  0  0  0  0  0  0  0
   -5.1740   -0.8300    0.3390 C   0  0  0  0  0  0  0  0  0  0  0  0
   -4.7260    0.2820   -0.3530 C   0  0  0  0  0  0  0  0  0  0  0  0
   -5.4550    0.7710   -1.4210 C   0  0  0  0  0  0  0  0  0  0  0  0
   -6.6310    0.1500   -1.7980 C   0  0  0  0  0  0  0  0  0  0  0  0
   -3.4440    0.9590    0.0570 C   0  0  3  0  0  0  0  0  0  0  0  0
   -3.1770    2.1530   -0.8620 C   0  0  0  0  0  0  0  0  0  0  0  0
   -1.9300    2.8080   -0.4610 N   0  0  0  0  0  0  0  0  0  0  0  0
   -0.6910    2.5230   -0.9160 C   0  0  0  0  0  0  0  0  0  0  0  0
    0.1640    3.3140   -0.3290 N   0  0  0  0  0  0  0  0  0  0  0  0
   -0.4920    4.1260    0.5140 C   0  0  0  0  0  0  0  0  0  0  0  0
   -1.8030    3.8290    0.4420 C   0  0  0  0  0  0  0  0  0  0  0  0
   -3.5510    1.4120    1.4170 O   0  0  0  0  0  0  0  0  0  0  0  0
   -2.2280    1.2250    1.9740 C   0  0  0  0  0  0  0  0  0  0  0  0
   -1.7740   -0.0820    1.2780 C   0  0  3  0  0  0  0  0  0  0  0  0
   -2.3580    0.0280   -0.0330 O   0  0  0  0  0  0  0  0  0  0  0  0
   -0.2480   -0.1470    1.1890 C   0  0  0  0  0  0  0  0  0  0  0  0
    0.1440   -1.4110    0.6500 O   0  0  0  0  0  0  0  0  0  0  0  0
    1.5030   -1.4100    0.5950 C   0  0  0  0  0  0  0  0  0  0  0  0
    2.1780   -2.5190    0.1080 C   0  0  0  0  0  0  0  0  0  0  0  0
    3.5580   -2.5190    0.0520 C   0  0  0  0  0  0  0  0  0  0  0  0
    4.2700   -1.4070    0.4830 C   0  0  0  0  0  0  0  0  0  0  0  0
    3.5930   -0.2960    0.9700 C   0  0  0  0  0  0  0  0  0  0  0  0
    2.2130   -0.2970    1.0210 C   0  0  0  0  0  0  0  0  0  0  0  0
    5.6680   -1.4060    0.4270 N   0  0  0  0  0  0  0  0  0  0  0  0
    6.1100   -0.1070    0.9470 C   0  0  0  0  0  0  0  0  0  0  0  0
    7.6410   -0.0440    0.9380 C   0  0  0  0  0  0  0  0  0  0  0  0
    8.1080   -0.3110   -0.4320 N   0  0  0  0  0  0  0  0  0  0  0  0
    7.5590   -1.4840   -1.1300 C   0  0  0  0  0  0  0  0  0  0  0  0
    6.0340   -1.4580   -0.9930 C   0  0  0  0  0  0  0  0  0  0  0  0
    9.0110    0.4940   -1.0280 C   0  0  0  0  0  0  0  0  0  0  0  0
    9.4500    1.4560   -0.4340 O   0  0  0  0  0  0  0  0  0  0  0  0
    9.4730    0.1980   -2.4310 C   0  0  0  0  0  0  0  0  0  0  0  0
   -4.2590   -1.4430    1.6810 Cl  0  0  0  0  0  0  0  0  0  0  0  0
   -8.5530   -1.7450   -1.5840 Cl  0  0  0  0  0  0  0  0  0  0  0  0
   -6.7000   -2.3180    0.5030 H   0  0  0  0  0  0  0  0  0  0  0  0
   -5.1060    1.6390   -1.9600 H   0  0  0  0  0  0  0  0  0  0  0  0
   -7.2000    0.5320   -2.6320 H   0  0  0  0  0  0  0  0  0  0  0  0
   -3.0890    1.8060   -1.8920 H   0  0  0  0  0  0  0  0  0  0  0  0
   -4.0010    2.8620   -0.7860 H   0  0  0  0  0  0  0  0  0  0  0  0
   -0.4480    1.7640   -1.6460 H   0  0  0  0  0  0  0  0  0  0  0  0
   -0.0460    4.8860    1.1380 H   0  0  0  0  0  0  0  0  0  0  0  0
   -2.6010    4.3020    0.9960 H   0  0  0  0  0  0  0  0  0  0  0  0
   -1.5720    2.0550    1.7100 H   0  0  0  0  0  0  0  0  0  0  0  0
   -2.2740    1.0950    3.0550 H   0  0  0  0  0  0  0  0  0  0  0  0
   -2.1680   -0.9540    1.8000 H   0  0  0  0  0  0  0  0  0  0  0  0
    0.1120    0.6520    0.5410 H   0  0  0  0  0  0  0  0  0  0  0  0
    0.1790   -0.0280    2.1850 H   0  0  0  0  0  0  0  0  0  0  0  0
    1.6250   -3.3840   -0.2270 H   0  0  0  0  0  0  0  0  0  0  0  0
    4.0840   -3.3830   -0.3260 H   0  0  0  0  0  0  0  0  0  0  0  0
    4.1460    0.5690    1.3060 H   0  0  0  0  0  0  0  0  0  0  0  0
    1.6870    0.5670    1.3990 H   0  0  0  0  0  0  0  0  0  0  0  0
    5.7100    0.6900    0.3200 H   0  0  0  0  0  0  0  0  0  0  0  0
    5.7470    0.0190    1.9670 H   0  0  0  0  0  0  0  0  0  0  0  0
    7.9690    0.9470    1.2510 H   0  0  0  0  0  0  0  0  0  0  0  0
    8.0430   -0.7960    1.6170 H   0  0  0  0  0  0  0  0  0  0  0  0
    7.8340   -1.4460   -2.1840 H   0  0  0  0  0  0  0  0  0  0  0  0
    7.9520   -2.3960   -0.6800 H   0  0  0  0  0  0  0  0  0  0  0  0
    5.6130   -2.3570   -1.4430 H   0  0  0  0  0  0  0  0  0  0  0  0
    5.6390   -0.5790   -1.5020 H   0  0  0  0  0  0  0  0  0  0  0  0
    8.8220    0.7050   -3.1430 H   0  0  0  0  0  0  0  0  0  0  0  0
   10.4960    0.5510   -2.5580 H   0  0  0  0  0  0  0  0  0  0  0  0
    9.4360   -0.8780   -2.6070 H   0  0  0  0  0  0  0  0  0  0  0  0
  1  2  1  0  0  0  0
  1  6  2  0  0  0  0
  1 36  1  0  0  0  0
  2  3  2  0  0  0  0
  2 37  1  0  0  0  0
  3  4  1  0  0  0  0
  3 35  1  0  0  0  0
  4  5  2  0  0  0  0
  4  7  1  0  0  0  0
  5  6  1  0  0  0  0
  5 38  1  0  0  0  0
  6 39  1  0  0  0  0
  7  8  1  0  0  0  0
  7 14  1  0  0  0  0
  7 17  1  0  0  0  0
  8  9  1  0  0  0  0
  8 40  1  0  0  0  0
  8 41  1  0  0  0  0
  9 10  1  0  0  0  0
  9 13  1  0  0  0  0
 10 11  2  0  0  0  0
 10 42  1  0  0  0  0
 11 12  1  0  0  0  0
 12 13  2  0  0  0  0
 12 43  1  0  0  0  0
 13 44  1  0  0  0  0
 14 15  1  0  0  0  0
 15 16  1  0  0  0  0
 15 45  1  0  0  0  0
 15 46  1  0  0  0  0
 16 17  1  0  0  0  0
 16 18  1  0  0  0  0
 16 47  1  0  0  0  0
 18 19  1  0  0  0  0
 18 48  1  0  0  0  0
 18 49  1  0  0  0  0
 19 20  1  0  0  0  0
 20 21  1  0  0  0  0
 20 25  2  0  0  0  0
 21 22  2  0  0  0  0
 21 50  1  0  0  0  0
 22 23  1  0  0  0  0
 22 51  1  0  0  0  0
 23 24  2  0  0  0  0
 23 26  1  0  0  0  0
 24 25  1  0  0  0  0
 24 52  1  0  0  0  0
 25 53  1  0  0  0  0
 26 27  1  0  0  0  0
 26 31  1  0  0  0  0
 27 28  1  0  0  0  0
 27 54  1  0  0  0  0
 27 55  1  0  0  0  0
 28 29  1  0  0  0  0
 28 56  1  0  0  0  0
 28 57  1  0  0  0  0
 29 30  1  0  0  0  0
 29 32  1  0  0  0  0
 30 31  1  0  0  0  0
 30 58  1  0  0  0  0
 30 59  1  0  0  0  0
 31 60  1  0  0  0  0
 31 61  1  0  0  0  0
 32 33  2  0  0  0  0
 32 34  1  0  0  0  0
 34 62  1  0  0  0  0
 34 63  1  0  0  0  0
 34 64  1  0  0  0  0
M  END
>  <UNIQUE_SMILES>
Clc1c(C2(Cn3cncc3)OC(COc3ccc(N4CCN(C(=O)C)CC4)cc3)CO2)ccc(Cl)c1

>  <USER_SUPPLIED_SMILES>
Clc1c(C2(Cn3cncc3)OC(COc3ccc(N4CCN(C(=O)C)CC4)cc3)CO2)ccc(Cl)c1

$$$$
C17H18N4O
  MOE2018           3D

 40 43  0  0  0  0  0  0  0  0999 V2000
    0.2630   -2.0110    0.7660 O   0  0  0  0  0  0  0  0  0  0  0  0
    0.1430   -0.8000    0.7580 C   0  0  0  0  0  0  0  0  0  0  0  0
    1.1510    0.0140    1.1500 N   0  0  0  0  0  0  0  0  0  0  0  0
    0.9800    1.4530    1.3000 C   0  0  0  0  0  0  0  0  0  0  0  0
    0.0910    2.0560    0.2110 C   0  0  0  0  0  0  0  0  0  0  0  0
   -1.1410    1.2000    0.0560 C   0  0  0  0  0  0  0  0  0  0  0  0
   -2.3860    1.5480   -0.3280 N   0  0  0  0  0  0  0  0  0  0  0  0
   -3.2060    0.4490   -0.3290 C   0  0  0  0  0  0  0  0  0  0  0  0
   -2.4330   -0.6690    0.0780 C   0  0  0  0  0  0  0  0  0  0  0  0
   -1.0990   -0.1530    0.3160 C   0  0  0  0  0  0  0  0  0  0  0  0
   -2.9970   -1.9410    0.1740 C   0  0  0  0  0  0  0  0  0  0  0  0
   -4.3380   -2.0580   -0.1450 C   0  0  0  0  0  0  0  0  0  0  0  0
   -5.0930   -0.9680   -0.5420 C   0  0  0  0  0  0  0  0  0  0  0  0
   -4.5540    0.3030   -0.6450 C   0  0  0  0  0  0  0  0  0  0  0  0
   -2.8030    2.9050   -0.6900 C   0  0  0  0  0  0  0  0  0  0  0  0
    2.4630   -0.5740    1.4350 C   0  0  0  0  0  0  0  0  0  0  0  0
    3.2910   -0.5900    0.1760 C   0  0  0  0  0  0  0  0  0  0  0  0
    3.4950   -1.6600   -0.6520 N   0  0  0  0  0  0  0  0  0  0  0  0
    4.2940   -1.2410   -1.6570 C   0  0  0  0  0  0  0  0  0  0  0  0
    4.5740    0.0200   -1.4700 N   0  0  0  0  0  0  0  0  0  0  0  0
    3.9660    0.4470   -0.3530 C   0  0  0  0  0  0  0  0  0  0  0  0
    4.0350    1.8420    0.2140 C   0  0  0  0  0  0  0  0  0  0  0  0
    0.5310    1.6550    2.2720 H   0  0  0  0  0  0  0  0  0  0  0  0
    1.9590    1.9300    1.2600 H   0  0  0  0  0  0  0  0  0  0  0  0
   -0.2000    3.0670    0.4970 H   0  0  0  0  0  0  0  0  0  0  0  0
    0.6370    2.0840   -0.7320 H   0  0  0  0  0  0  0  0  0  0  0  0
   -2.4130   -2.7960    0.4830 H   0  0  0  0  0  0  0  0  0  0  0  0
   -4.8100   -3.0280   -0.0820 H   0  0  0  0  0  0  0  0  0  0  0  0
   -6.1370   -1.1140   -0.7800 H   0  0  0  0  0  0  0  0  0  0  0  0
   -5.1540    1.1460   -0.9560 H   0  0  0  0  0  0  0  0  0  0  0  0
   -2.6560    3.0560   -1.7600 H   0  0  0  0  0  0  0  0  0  0  0  0
   -3.8570    3.0390   -0.4460 H   0  0  0  0  0  0  0  0  0  0  0  0
   -2.2060    3.6280   -0.1350 H   0  0  0  0  0  0  0  0  0  0  0  0
    2.9700    0.0200    2.1960 H   0  0  0  0  0  0  0  0  0  0  0  0
    2.3330   -1.5940    1.7980 H   0  0  0  0  0  0  0  0  0  0  0  0
    4.6440   -1.8480   -2.4790 H   0  0  0  0  0  0  0  0  0  0  0  0
    3.2270    2.4430   -0.2000 H   0  0  0  0  0  0  0  0  0  0  0  0
    3.9360    1.7980    1.2990 H   0  0  0  0  0  0  0  0  0  0  0  0
    4.9930    2.2920   -0.0450 H   0  0  0  0  0  0  0  0  0  0  0  0
    3.1340   -2.5530   -0.5390 H   0  0  0  0  0  0  0  0  0  0  0  0
  1  2  2  0  0  0  0
  2  3  1  0  0  0  0
  2 10  1  0  0  0  0
  3  4  1  0  0  0  0
  3 16  1  0  0  0  0
  4  5  1  0  0  0  0
  4 23  1  0  0  0  0
  4 24  1  0  0  0  0
  5  6  1  0  0  0  0
  5 25  1  0  0  0  0
  5 26  1  0  0  0  0
  6  7  1  0  0  0  0
  6 10  2  0  0  0  0
  7  8  1  0  0  0  0
  7 15  1  0  0  0  0
  8  9  1  0  0  0  0
  8 14  2  0  0  0  0
  9 10  1  0  0  0  0
  9 11  2  0  0  0  0
 11 12  1  0  0  0  0
 11 27  1  0  0  0  0
 12 13  2  0  0  0  0
 12 28  1  0  0  0  0
 13 14  1  0  0  0  0
 13 29  1  0  0  0  0
 14 30  1  0  0  0  0
 15 31  1  0  0  0  0
 15 32  1  0  0  0  0
 15 33  1  0  0  0  0
 16 17  1  0  0  0  0
 16 34  1  0  0  0  0
 16 35  1  0  0  0  0
 17 18  1  0  0  0  0
 17 21  2  0  0  0  0
 18 19  1  0  0  0  0
 18 40  1  0  0  0  0
 19 20  2  0  0  0  0
 19 36  1  0  0  0  0
 20 21  1  0  0  0  0
 21 22  1  0  0  0  0
 22 37  1  0  0  0  0
 22 38  1  0  0  0  0
 22 39  1  0  0  0  0
M  END
>  <UNIQUE_SMILES>
O=C1N(Cc2c(C)nc[nH]2)CCc2n(C)c3c(c12)cccc3

>  <USER_SUPPLIED_SMILES>
O=C1N(Cc2c(C)[nH]cn2)CCc2n(C)c3c(c12)cccc3

$$$$
C22H25N3O4
  MOE2018           3D

 54 57  0  0  0  0  0  0  0  0999 V2000
    6.3900    0.0680   -1.2500 N   0  0  0  0  0  0  0  0  0  0  0  0
    5.1450   -0.1690   -0.6520 C   0  0  0  0  0  0  0  0  0  0  0  0
    4.5880    0.7850    0.1890 C   0  0  0  0  0  0  0  0  0  0  0  0
    5.3240    2.0720    0.4550 C   0  0  0  0  0  0  0  0  0  0  0  0
    6.8300    1.8070    0.4620 C   0  0  0  0  0  0  0  0  0  0  0  0
    7.2160    1.0070   -0.7530 C   0  0  0  0  0  0  0  0  0  0  0  0
    8.2840    1.2110   -1.2910 O   0  0  0  0  0  0  0  0  0  0  0  0
    3.3620    0.5540    0.7790 C   0  0  0  0  0  0  0  0  0  0  0  0
    2.6850   -0.6340    0.5310 C   0  0  0  0  0  0  0  0  0  0  0  0
    3.2420   -1.5880   -0.3100 C   0  0  0  0  0  0  0  0  0  0  0  0
    4.4690   -1.3560   -0.9000 C   0  0  0  0  0  0  0  0  0  0  0  0
    1.4420   -0.8680    1.1290 N   0  0  0  0  0  0  0  0  0  0  0  0
    0.9980   -2.1900    0.6730 C   0  0  0  0  0  0  0  0  0  0  0  0
   -0.3540   -2.5260    1.3110 C   0  0  0  0  0  0  0  0  0  0  0  0
   -1.3030   -1.4490    0.9840 N   0  0  0  0  0  0  0  0  0  0  0  0
   -0.8710   -0.0600    1.2060 C   0  0  0  0  0  0  0  0  0  0  0  0
    0.5130    0.1230    0.5740 C   0  0  0  0  0  0  0  0  0  0  0  0
   -2.5280   -1.7270    0.4950 C   0  0  0  0  0  0  0  0  0  0  0  0
   -3.5110   -0.6420    0.3100 C   0  0  0  0  0  0  0  0  0  0  0  0
   -4.3860   -0.6680   -0.7800 C   0  0  0  0  0  0  0  0  0  0  0  0
   -5.3050    0.3490   -0.9490 C   0  0  0  0  0  0  0  0  0  0  0  0
   -5.3590    1.3990   -0.0330 C   0  0  0  0  0  0  0  0  0  0  0  0
   -4.4900    1.4240    1.0490 C   0  0  0  0  0  0  0  0  0  0  0  0
   -3.5740    0.4100    1.2260 C   0  0  0  0  0  0  0  0  0  0  0  0
   -6.2630    2.3980   -0.2000 O   0  0  0  0  0  0  0  0  0  0  0  0
   -6.0740    3.3110    0.8830 C   0  0  0  0  0  0  0  0  0  0  0  0
   -6.1560    0.3270   -2.0090 O   0  0  0  0  0  0  0  0  0  0  0  0
   -5.8590   -0.8560   -2.7540 C   0  0  0  0  0  0  0  0  0  0  0  0
   -2.8220   -2.8710    0.2070 O   0  0  0  0  0  0  0  0  0  0  0  0
    6.6590   -0.4500   -2.0240 H   0  0  0  0  0  0  0  0  0  0  0  0
    5.0860    2.7940   -0.3260 H   0  0  0  0  0  0  0  0  0  0  0  0
    5.0220    2.4710    1.4230 H   0  0  0  0  0  0  0  0  0  0  0  0
    7.3650    2.7570    0.4540 H   0  0  0  0  0  0  0  0  0  0  0  0
    7.0960    1.2510    1.3610 H   0  0  0  0  0  0  0  0  0  0  0  0
    2.9290    1.2960    1.4340 H   0  0  0  0  0  0  0  0  0  0  0  0
    2.7160   -2.5110   -0.5030 H   0  0  0  0  0  0  0  0  0  0  0  0
    4.9020   -2.0980   -1.5550 H   0  0  0  0  0  0  0  0  0  0  0  0
    0.8950   -2.1840   -0.4120 H   0  0  0  0  0  0  0  0  0  0  0  0
    1.7330   -2.9410    0.9630 H   0  0  0  0  0  0  0  0  0  0  0  0
   -0.7220   -3.4720    0.9150 H   0  0  0  0  0  0  0  0  0  0  0  0
   -0.2410   -2.5990    2.3930 H   0  0  0  0  0  0  0  0  0  0  0  0
   -1.5800    0.6240    0.7410 H   0  0  0  0  0  0  0  0  0  0  0  0
   -0.8150    0.1400    2.2760 H   0  0  0  0  0  0  0  0  0  0  0  0
    0.8810    1.1260    0.7900 H   0  0  0  0  0  0  0  0  0  0  0  0
    0.4400   -0.0120   -0.5050 H   0  0  0  0  0  0  0  0  0  0  0  0
   -4.3430   -1.4820   -1.4900 H   0  0  0  0  0  0  0  0  0  0  0  0
   -4.5350    2.2400    1.7570 H   0  0  0  0  0  0  0  0  0  0  0  0
   -2.9000    0.4320    2.0700 H   0  0  0  0  0  0  0  0  0  0  0  0
   -6.7820    4.1350    0.7910 H   0  0  0  0  0  0  0  0  0  0  0  0
   -6.2410    2.7930    1.8280 H   0  0  0  0  0  0  0  0  0  0  0  0
   -5.0570    3.7010    0.8570 H   0  0  0  0  0  0  0  0  0  0  0  0
   -6.5200   -0.9170   -3.6180 H   0  0  0  0  0  0  0  0  0  0  0  0
   -4.8230   -0.8220   -3.0910 H   0  0  0  0  0  0  0  0  0  0  0  0
   -6.0070   -1.7310   -2.1200 H   0  0  0  0  0  0  0  0  0  0  0  0
  1  2  1  0  0  0  0
  1  6  1  0  0  0  0
  1 30  1  0  0  0  0
  2  3  1  0  0  0  0
  2 11  2  0  0  0  0
  3  4  1  0  0  0  0
  3  8  2  0  0  0  0
  4  5  1  0  0  0  0
  4 31  1  0  0  0  0
  4 32  1  0  0  0  0
  5  6  1  0  0  0  0
  5 33  1  0  0  0  0
  5 34  1  0  0  0  0
  6  7  2  0  0  0  0
  8  9  1  0  0  0  0
  8 35  1  0  0  0  0
  9 10  2  0  0  0  0
  9 12  1  0  0  0  0
 10 11  1  0  0  0  0
 10 36  1  0  0  0  0
 11 37  1  0  0  0  0
 12 13  1  0  0  0  0
 12 17  1  0  0  0  0
 13 14  1  0  0  0  0
 13 38  1  0  0  0  0
 13 39  1  0  0  0  0
 14 15  1  0  0  0  0
 14 40  1  0  0  0  0
 14 41  1  0  0  0  0
 15 16  1  0  0  0  0
 15 18  1  0  0  0  0
 16 17  1  0  0  0  0
 16 42  1  0  0  0  0
 16 43  1  0  0  0  0
 17 44  1  0  0  0  0
 17 45  1  0  0  0  0
 18 19  1  0  0  0  0
 18 29  2  0  0  0  0
 19 20  1  0  0  0  0
 19 24  2  0  0  0  0
 20 21  2  0  0  0  0
 20 46  1  0  0  0  0
 21 22  1  0  0  0  0
 21 27  1  0  0  0  0
 22 23  2  0  0  0  0
 22 25  1  0  0  0  0
 23 24  1  0  0  0  0
 23 47  1  0  0  0  0
 24 48  1  0  0  0  0
 25 26  1  0  0  0  0
 26 49  1  0  0  0  0
 26 50  1  0  0  0  0
 26 51  1  0  0  0  0
 27 28  1  0  0  0  0
 28 52  1  0  0  0  0
 28 53  1  0  0  0  0
 28 54  1  0  0  0  0
M  END
>  <UNIQUE_SMILES>
O=C(N1CCN(c2cc3c(NC(=O)CC3)cc2)CC1)c1cc(OC)c(OC)cc1

>  <USER_SUPPLIED_SMILES>
O=C(N1CCN(c2cc3c(NC(=O)CC3)cc2)CC1)c1cc(OC)c(OC)cc1

$$$$
C19H35N
  MOE2018           3D

 55 57  0  0  1  0  0  0  0  0999 V2000
   -0.3030    0.4320   -0.2910 C   0  0  0  0  0  0  0  0  0  0  0  0
   -1.7100    0.8230    0.1640 C   0  0  0  0  0  0  0  0  0  0  0  0
   -1.8940    2.3340    0.0100 C   0  0  0  0  0  0  0  0  0  0  0  0
   -3.3020    2.7260    0.4650 C   0  0  0  0  0  0  0  0  0  0  0  0
   -4.3370    1.9950   -0.3940 C   0  0  0  0  0  0  0  0  0  0  0  0
   -4.1530    0.4840   -0.2400 C   0  0  0  0  0  0  0  0  0  0  0  0
   -2.7450    0.0930   -0.6940 C   0  0  0  0  0  0  0  0  0  0  0  0
    0.7290    1.2650    0.4720 C   0  0  0  0  0  0  0  0  0  0  0  0
    2.1130    1.0520   -0.1450 C   0  0  3  0  0  0  0  0  0  0  0  0
    3.1090    2.0240    0.4910 C   0  0  0  0  0  0  0  0  0  0  0  0
    4.4840    1.8310   -0.1570 C   0  0  0  0  0  0  0  0  0  0  0  0
    4.8960    0.3620   -0.0220 C   0  0  0  0  0  0  0  0  0  0  0  0
    3.8060   -0.5230   -0.6310 C   0  0  0  0  0  0  0  0  0  0  0  0
    2.5460   -0.3290    0.0940 N   0  0  0  0  0  0  0  0  0  0  0  0
   -0.0700   -1.0530   -0.0070 C   0  0  0  0  0  0  0  0  0  0  0  0
   -0.8900   -1.4740    1.2140 C   0  0  0  0  0  0  0  0  0  0  0  0
   -0.6560   -2.9590    1.4980 C   0  0  0  0  0  0  0  0  0  0  0  0
   -1.0890   -3.7840    0.2840 C   0  0  0  0  0  0  0  0  0  0  0  0
   -0.2690   -3.3640   -0.9370 C   0  0  0  0  0  0  0  0  0  0  0  0
   -0.5020   -1.8780   -1.2210 C   0  0  0  0  0  0  0  0  0  0  0  0
   -0.2020    0.6180   -1.3600 H   0  0  0  0  0  0  0  0  0  0  0  0
   -1.8450    0.5460    1.2100 H   0  0  0  0  0  0  0  0  0  0  0  0
   -1.1570    2.8540    0.6220 H   0  0  0  0  0  0  0  0  0  0  0  0
   -1.7600    2.6120   -1.0360 H   0  0  0  0  0  0  0  0  0  0  0  0
   -3.4360    2.4480    1.5100 H   0  0  0  0  0  0  0  0  0  0  0  0
   -3.4330    3.8020    0.3550 H   0  0  0  0  0  0  0  0  0  0  0  0
   -5.3400    2.2740   -0.0700 H   0  0  0  0  0  0  0  0  0  0  0  0
   -4.2020    2.2730   -1.4390 H   0  0  0  0  0  0  0  0  0  0  0  0
   -4.2870    0.2070    0.8060 H   0  0  0  0  0  0  0  0  0  0  0  0
   -4.8900   -0.0360   -0.8510 H   0  0  0  0  0  0  0  0  0  0  0  0
   -2.6110    0.3710   -1.7400 H   0  0  0  0  0  0  0  0  0  0  0  0
   -2.6140   -0.9830   -0.5850 H   0  0  0  0  0  0  0  0  0  0  0  0
    0.4630    2.3200    0.4100 H   0  0  0  0  0  0  0  0  0  0  0  0
    0.7460    0.9560    1.5170 H   0  0  0  0  0  0  0  0  0  0  0  0
    2.0630    1.2340   -1.2180 H   0  0  0  0  0  0  0  0  0  0  0  0
    2.7710    3.0480    0.3310 H   0  0  0  0  0  0  0  0  0  0  0  0
    3.1790    1.8260    1.5600 H   0  0  0  0  0  0  0  0  0  0  0  0
    4.4320    2.1010   -1.2120 H   0  0  0  0  0  0  0  0  0  0  0  0
    5.2160    2.4630    0.3470 H   0  0  0  0  0  0  0  0  0  0  0  0
    5.8350    0.1970   -0.5490 H   0  0  0  0  0  0  0  0  0  0  0  0
    5.0200    0.1140    1.0320 H   0  0  0  0  0  0  0  0  0  0  0  0
    3.6660   -0.2570   -1.6790 H   0  0  0  0  0  0  0  0  0  0  0  0
    4.1080   -1.5680   -0.5610 H   0  0  0  0  0  0  0  0  0  0  0  0
    2.7630   -0.3990    1.0770 H   0  0  0  0  0  0  0  0  0  0  0  0
    0.9890   -1.2240    0.1900 H   0  0  0  0  0  0  0  0  0  0  0  0
   -0.5810   -0.8860    2.0790 H   0  0  0  0  0  0  0  0  0  0  0  0
   -1.9480   -1.3040    1.0180 H   0  0  0  0  0  0  0  0  0  0  0  0
    0.4020   -3.1300    1.6950 H   0  0  0  0  0  0  0  0  0  0  0  0
   -1.2400   -3.2590    2.3680 H   0  0  0  0  0  0  0  0  0  0  0  0
   -0.9230   -4.8430    0.4860 H   0  0  0  0  0  0  0  0  0  0  0  0
   -2.1480   -3.6140    0.0880 H   0  0  0  0  0  0  0  0  0  0  0  0
    0.7890   -3.5340   -0.7400 H   0  0  0  0  0  0  0  0  0  0  0  0
   -0.5770   -3.9510   -1.8020 H   0  0  0  0  0  0  0  0  0  0  0  0
   -1.5610   -1.7080   -1.4170 H   0  0  0  0  0  0  0  0  0  0  0  0
    0.0820   -1.5790   -2.0910 H   0  0  0  0  0  0  0  0  0  0  0  0
  1  2  1  0  0  0  0
  1  8  1  0  0  0  0
  1 15  1  0  0  0  0
  1 21  1  0  0  0  0
  2  3  1  0  0  0  0
  2  7  1  0  0  0  0
  2 22  1  0  0  0  0
  3  4  1  0  0  0  0
  3 23  1  0  0  0  0
  3 24  1  0  0  0  0
  4  5  1  0  0  0  0
  4 25  1  0  0  0  0
  4 26  1  0  0  0  0
  5  6  1  0  0  0  0
  5 27  1  0  0  0  0
  5 28  1  0  0  0  0
  6  7  1  0  0  0  0
  6 29  1  0  0  0  0
  6 30  1  0  0  0  0
  7 31  1  0  0  0  0
  7 32  1  0  0  0  0
  8  9  1  0  0  0  0
  8 33  1  0  0  0  0
  8 34  1  0  0  0  0
  9 10  1  0  0  0  0
  9 14  1  0  0  0  0
  9 35  1  0  0  0  0
 10 11  1  0  0  0  0
 10 36  1  0  0  0  0
 10 37  1  0  0  0  0
 11 12  1  0  0  0  0
 11 38  1  0  0  0  0
 11 39  1  0  0  0  0
 12 13  1  0  0  0  0
 12 40  1  0  0  0  0
 12 41  1  0  0  0  0
 13 14  1  0  0  0  0
 13 42  1  0  0  0  0
 13 43  1  0  0  0  0
 14 44  1  0  0  0  0
 15 16  1  0  0  0  0
 15 20  1  0  0  0  0
 15 45  1  0  0  0  0
 16 17  1  0  0  0  0
 16 46  1  0  0  0  0
 16 47  1  0  0  0  0
 17 18  1  0  0  0  0
 17 48  1  0  0  0  0
 17 49  1  0  0  0  0
 18 19  1  0  0  0  0
 18 50  1  0  0  0  0
 18 51  1  0  0  0  0
 19 20  1  0  0  0  0
 19 52  1  0  0  0  0
 19 53  1  0  0  0  0
 20 54  1  0  0  0  0
 20 55  1  0  0  0  0
M  END
>  <UNIQUE_SMILES>
C(CC1NCCCC1)(C1CCCCC1)C1CCCCC1

>  <USER_SUPPLIED_SMILES>
C(CC1NCCCC1)(C1CCCCC1)C1CCCCC1

$$$$
C17H19ClN2S
  MOE2018           3D

 40 42  0  0  0  0  0  0  0  0999 V2000
    0.4850   -0.4820    0.4550 N   0  0  0  0  0  0  0  0  0  0  0  0
    1.4700   -1.3940    0.0790 C   0  0  0  0  0  0  0  0  0  0  0  0
    1.0910   -2.6990   -0.2200 C   0  0  0  0  0  0  0  0  0  0  0  0
    2.0380   -3.6320   -0.5960 C   0  0  0  0  0  0  0  0  0  0  0  0
    3.3700   -3.2710   -0.6750 C   0  0  0  0  0  0  0  0  0  0  0  0
    3.7550   -1.9780   -0.3800 C   0  0  0  0  0  0  0  0  0  0  0  0
    2.8080   -1.0300   -0.0030 C   0  0  0  0  0  0  0  0  0  0  0  0
    3.3420    0.6050    0.3580 S   0  0  0  0  0  0  0  0  0  0  0  0
    1.8480    1.5130    0.1780 C   0  0  0  0  0  0  0  0  0  0  0  0
    0.6060    0.8920    0.2450 C   0  0  0  0  0  0  0  0  0  0  0  0
   -0.5520    1.6470    0.0970 C   0  0  0  0  0  0  0  0  0  0  0  0
   -0.4730    3.0110   -0.1180 C   0  0  0  0  0  0  0  0  0  0  0  0
   -1.9240    3.9470   -0.3020 Cl  0  0  0  0  0  0  0  0  0  0  0  0
    0.7620    3.6300   -0.1840 C   0  0  0  0  0  0  0  0  0  0  0  0
    1.9180    2.8860   -0.0360 C   0  0  0  0  0  0  0  0  0  0  0  0
   -0.7330   -0.9880    1.0930 C   0  0  0  0  0  0  0  0  0  0  0  0
   -1.7770   -1.3050    0.0200 C   0  0  0  0  0  0  0  0  0  0  0  0
   -3.0480   -1.8340    0.6860 C   0  0  0  0  0  0  0  0  0  0  0  0
   -4.0510   -2.1380   -0.3440 N   0  0  0  0  0  0  0  0  0  0  0  0
   -5.1400   -2.8600    0.3260 C   0  0  0  0  0  0  0  0  0  0  0  0
   -4.6060   -0.8510   -0.7860 C   0  0  0  0  0  0  0  0  0  0  0  0
    0.0510   -2.9840   -0.1570 H   0  0  0  0  0  0  0  0  0  0  0  0
    1.7380   -4.6430   -0.8270 H   0  0  0  0  0  0  0  0  0  0  0  0
    4.1100   -4.0010   -0.9680 H   0  0  0  0  0  0  0  0  0  0  0  0
    4.7970   -1.7000   -0.4440 H   0  0  0  0  0  0  0  0  0  0  0  0
   -1.5180    1.1660    0.1490 H   0  0  0  0  0  0  0  0  0  0  0  0
    0.8240    4.6950   -0.3510 H   0  0  0  0  0  0  0  0  0  0  0  0
    2.8800    3.3730   -0.0890 H   0  0  0  0  0  0  0  0  0  0  0  0
   -0.5000   -1.8940    1.6520 H   0  0  0  0  0  0  0  0  0  0  0  0
   -1.1280   -0.2330    1.7720 H   0  0  0  0  0  0  0  0  0  0  0  0
   -2.0090   -0.3980   -0.5390 H   0  0  0  0  0  0  0  0  0  0  0  0
   -1.3820   -2.0600   -0.6600 H   0  0  0  0  0  0  0  0  0  0  0  0
   -2.8160   -2.7400    1.2450 H   0  0  0  0  0  0  0  0  0  0  0  0
   -3.4440   -1.0790    1.3660 H   0  0  0  0  0  0  0  0  0  0  0  0
   -5.5660   -2.2300    1.1080 H   0  0  0  0  0  0  0  0  0  0  0  0
   -5.9130   -3.1090   -0.4010 H   0  0  0  0  0  0  0  0  0  0  0  0
   -4.7500   -3.7760    0.7700 H   0  0  0  0  0  0  0  0  0  0  0  0
   -5.3590   -1.0250   -1.5540 H   0  0  0  0  0  0  0  0  0  0  0  0
   -5.0640   -0.3430    0.0630 H   0  0  0  0  0  0  0  0  0  0  0  0
   -3.8070   -0.2310   -1.1920 H   0  0  0  0  0  0  0  0  0  0  0  0
  1  2  1  0  0  0  0
  1 10  1  0  0  0  0
  1 16  1  0  0  0  0
  2  3  1  0  0  0  0
  2  7  2  0  0  0  0
  3  4  2  0  0  0  0
  3 22  1  0  0  0  0
  4  5  1  0  0  0  0
  4 23  1  0  0  0  0
  5  6  2  0  0  0  0
  5 24  1  0  0  0  0
  6  7  1  0  0  0  0
  6 25  1  0  0  0  0
  7  8  1  0  0  0  0
  8  9  1  0  0  0  0
  9 10  1  0  0  0  0
  9 15  2  0  0  0  0
 10 11  2  0  0  0  0
 11 12  1  0  0  0  0
 11 26  1  0  0  0  0
 12 13  1  0  0  0  0
 12 14  2  0  0  0  0
 14 15  1  0  0  0  0
 14 27  1  0  0  0  0
 15 28  1  0  0  0  0
 16 17  1  0  0  0  0
 16 29  1  0  0  0  0
 16 30  1  0  0  0  0
 17 18  1  0  0  0  0
 17 31  1  0  0  0  0
 17 32  1  0  0  0  0
 18 19  1  0  0  0  0
 18 33  1  0  0  0  0
 18 34  1  0  0  0  0
 19 20  1  0  0  0  0
 19 21  1  0  0  0  0
 20 35  1  0  0  0  0
 20 36  1  0  0  0  0
 20 37  1  0  0  0  0
 21 38  1  0  0  0  0
 21 39  1  0  0  0  0
 21 40  1  0  0  0  0
M  END
>  <UNIQUE_SMILES>
Clc1cc2N(CCCN(C)C)c3c(Sc2cc1)cccc3

>  <USER_SUPPLIED_SMILES>
Clc1cc2N(CCCN(C)C)c3c(Sc2cc1)cccc3

$$$$
C20H23N
  MOE2018           3D

 44 46  0  0  0  0  0  0  0  0999 V2000
   -0.4200   -0.3260   -0.4910 C   0  0  0  0  0  0  0  0  0  0  0  0
   -1.7780   -0.9060   -0.3920 C   0  0  0  0  0  0  0  0  0  0  0  0
   -2.4560   -0.7290    0.7900 C   0  0  0  0  0  0  0  0  0  0  0  0
   -3.7250   -1.2630    0.9380 C   0  0  0  0  0  0  0  0  0  0  0  0
   -4.2990   -1.9610   -0.1100 C   0  0  0  0  0  0  0  0  0  0  0  0
   -3.6180   -2.1320   -1.3010 C   0  0  0  0  0  0  0  0  0  0  0  0
   -2.3480   -1.6040   -1.4530 C   0  0  0  0  0  0  0  0  0  0  0  0
   -1.8300    0.0460    1.9070 C   0  0  0  0  0  0  0  0  0  0  0  0
   -1.7670    1.5260    1.6420 C   0  0  0  0  0  0  0  0  0  0  0  0
   -0.8180    1.9390    0.5460 C   0  0  0  0  0  0  0  0  0  0  0  0
   -0.1950    1.1320   -0.3840 C   0  0  0  0  0  0  0  0  0  0  0  0
    0.6980    1.6890   -1.3130 C   0  0  0  0  0  0  0  0  0  0  0  0
    0.9460    3.0420   -1.3300 C   0  0  0  0  0  0  0  0  0  0  0  0
    0.3040    3.8580   -0.4160 C   0  0  0  0  0  0  0  0  0  0  0  0
   -0.5610    3.3130    0.5050 C   0  0  0  0  0  0  0  0  0  0  0  0
    0.6280   -1.1380   -0.6760 C   0  0  0  0  0  0  0  0  0  0  0  0
    0.4680   -2.1870   -0.8790 H   0  0  0  0  0  0  0  0  0  0  0  0
    2.0290   -0.5900   -0.5990 C   0  0  0  0  0  0  0  0  0  0  0  0
    2.8480   -1.4180    0.3940 C   0  0  0  0  0  0  0  0  0  0  0  0
    4.2140   -0.8830    0.4680 N   0  0  0  0  0  0  0  0  0  0  0  0
    4.8680   -1.5530    1.5990 C   0  0  0  0  0  0  0  0  0  0  0  0
    4.9080   -1.3300   -0.7470 C   0  0  0  0  0  0  0  0  0  0  0  0
   -4.2640   -1.1350    1.8650 H   0  0  0  0  0  0  0  0  0  0  0  0
   -5.2890   -2.3780    0.0040 H   0  0  0  0  0  0  0  0  0  0  0  0
   -4.0760   -2.6760   -2.1130 H   0  0  0  0  0  0  0  0  0  0  0  0
   -1.8080   -1.7310   -2.3790 H   0  0  0  0  0  0  0  0  0  0  0  0
   -2.4090   -0.1220    2.8160 H   0  0  0  0  0  0  0  0  0  0  0  0
   -0.8180   -0.3240    2.0660 H   0  0  0  0  0  0  0  0  0  0  0  0
   -2.7670    1.8710    1.3790 H   0  0  0  0  0  0  0  0  0  0  0  0
   -1.4670    2.0270    2.5630 H   0  0  0  0  0  0  0  0  0  0  0  0
    1.1970    1.0470   -2.0240 H   0  0  0  0  0  0  0  0  0  0  0  0
    1.6340    3.4620   -2.0480 H   0  0  0  0  0  0  0  0  0  0  0  0
    0.4810    4.9230   -0.4260 H   0  0  0  0  0  0  0  0  0  0  0  0
   -1.0520    3.9630    1.2150 H   0  0  0  0  0  0  0  0  0  0  0  0
    2.4930   -0.6410   -1.5840 H   0  0  0  0  0  0  0  0  0  0  0  0
    1.9960    0.4480   -0.2670 H   0  0  0  0  0  0  0  0  0  0  0  0
    2.3830   -1.3660    1.3790 H   0  0  0  0  0  0  0  0  0  0  0  0
    2.8810   -2.4550    0.0610 H   0  0  0  0  0  0  0  0  0  0  0  0
    4.8820   -2.6290    1.4260 H   0  0  0  0  0  0  0  0  0  0  0  0
    5.8910   -1.1880    1.6960 H   0  0  0  0  0  0  0  0  0  0  0  0
    4.3180   -1.3400    2.5160 H   0  0  0  0  0  0  0  0  0  0  0  0
    5.9320   -0.9560   -0.7380 H   0  0  0  0  0  0  0  0  0  0  0  0
    4.9200   -2.4190   -0.7790 H   0  0  0  0  0  0  0  0  0  0  0  0
    4.3890   -0.9450   -1.6250 H   0  0  0  0  0  0  0  0  0  0  0  0
  1  2  1  0  0  0  0
  1 11  1  0  0  0  0
  1 16  2  0  0  0  0
  2  3  2  0  0  0  0
  2  7  1  0  0  0  0
  3  4  1  0  0  0  0
  3  8  1  0  0  0  0
  4  5  2  0  0  0  0
  4 23  1  0  0  0  0
  5  6  1  0  0  0  0
  5 24  1  0  0  0  0
  6  7  2  0  0  0  0
  6 25  1  0  0  0  0
  7 26  1  0  0  0  0
  8  9  1  0  0  0  0
  8 27  1  0  0  0  0
  8 28  1  0  0  0  0
  9 10  1  0  0  0  0
  9 29  1  0  0  0  0
  9 30  1  0  0  0  0
 10 11  2  0  0  0  0
 10 15  1  0  0  0  0
 11 12  1  0  0  0  0
 12 13  2  0  0  0  0
 12 31  1  0  0  0  0
 13 14  1  0  0  0  0
 13 32  1  0  0  0  0
 14 15  2  0  0  0  0
 14 33  1  0  0  0  0
 15 34  1  0  0  0  0
 16 17  1  0  0  0  0
 16 18  1  0  0  0  0
 18 19  1  0  0  0  0
 18 35  1  0  0  0  0
 18 36  1  0  0  0  0
 19 20  1  0  0  0  0
 19 37  1  0  0  0  0
 19 38  1  0  0  0  0
 20 21  1  0  0  0  0
 20 22  1  0  0  0  0
 21 39  1  0  0  0  0
 21 40  1  0  0  0  0
 21 41  1  0  0  0  0
 22 42  1  0  0  0  0
 22 43  1  0  0  0  0
 22 44  1  0  0  0  0
M  END
>  <UNIQUE_SMILES>
N(CCC=C1c2c(cccc2)CCc2c1cccc2)(C)C

>  <USER_SUPPLIED_SMILES>
N(CCC=C1c2c(cccc2)CCc2c1cccc2)(C)C

$$$$
C17H16F6N2O
  MOE2018           3D

 42 44  0  0  1  0  0  0  0  0999 V2000
   -2.9300   -2.7090   -0.8110 F   0  0  0  0  0  0  0  0  0  0  0  0
   -1.6400   -2.9590   -0.3310 C   0  0  0  0  0  0  0  0  0  0  0  0
   -1.7140   -3.7830    0.7980 F   0  0  0  0  0  0  0  0  0  0  0  0
   -0.8890   -3.5960   -1.3240 F   0  0  0  0  0  0  0  0  0  0  0  0
   -0.9800   -1.6560    0.0400 C   0  0  0  0  0  0  0  0  0  0  0  0
   -1.6770   -0.5470   -0.0260 N   0  0  0  0  0  0  0  0  0  0  0  0
   -1.1360    0.6330    0.2930 C   0  0  0  0  0  0  0  0  0  0  0  0
    0.2170    0.6980    0.7120 C   0  0  0  0  0  0  0  0  0  0  0  0
    0.9670   -0.4900    0.7840 C   0  0  0  0  0  0  0  0  0  0  0  0
    2.4080   -0.4710    1.2250 C   0  0  3  0  0  0  0  0  0  0  0  0
    2.7580   -1.7460    1.7640 O   0  0  0  0  0  0  0  0  0  0  0  0
    3.3040   -0.1610    0.0240 C   0  0  3  0  0  0  0  0  0  0  0  0
    2.9430    1.1490   -0.5300 N   0  0  0  0  0  0  0  0  0  0  0  0
    3.7290    1.3370   -1.7540 C   0  0  0  0  0  0  0  0  0  0  0  0
    5.2160    1.4320   -1.4050 C   0  0  0  0  0  0  0  0  0  0  0  0
    5.6620    0.1240   -0.7430 C   0  0  0  0  0  0  0  0  0  0  0  0
    4.7670   -0.1490    0.4700 C   0  0  0  0  0  0  0  0  0  0  0  0
    0.3510   -1.6630    0.4490 C   0  0  0  0  0  0  0  0  0  0  0  0
    0.7810    1.9410    1.0440 C   0  0  0  0  0  0  0  0  0  0  0  0
    0.0220    3.0680    0.9600 C   0  0  0  0  0  0  0  0  0  0  0  0
   -1.3080    3.0060    0.5490 C   0  0  0  0  0  0  0  0  0  0  0  0
   -1.8860    1.8190    0.2200 C   0  0  0  0  0  0  0  0  0  0  0  0
   -3.3270    1.7770   -0.2220 C   0  0  0  0  0  0  0  0  0  0  0  0
   -3.8560    3.0720   -0.2130 F   0  0  0  0  0  0  0  0  0  0  0  0
   -3.4030    1.2510   -1.5160 F   0  0  0  0  0  0  0  0  0  0  0  0
   -4.0590    0.9680    0.6540 F   0  0  0  0  0  0  0  0  0  0  0  0
    2.5440    0.2960    1.9870 H   0  0  0  0  0  0  0  0  0  0  0  0
    2.6240   -2.3950    1.0600 H   0  0  0  0  0  0  0  0  0  0  0  0
    3.1650   -0.9270   -0.7390 H   0  0  0  0  0  0  0  0  0  0  0  0
    1.9760    1.0880   -0.8120 H   0  0  0  0  0  0  0  0  0  0  0  0
    3.5660    0.4920   -2.4220 H   0  0  0  0  0  0  0  0  0  0  0  0
    3.4140    2.2550   -2.2490 H   0  0  0  0  0  0  0  0  0  0  0  0
    5.7930    1.5950   -2.3150 H   0  0  0  0  0  0  0  0  0  0  0  0
    5.3760    2.2620   -0.7170 H   0  0  0  0  0  0  0  0  0  0  0  0
    5.5710   -0.6950   -1.4560 H   0  0  0  0  0  0  0  0  0  0  0  0
    6.6980    0.2150   -0.4180 H   0  0  0  0  0  0  0  0  0  0  0  0
    4.9140    0.6330    1.2150 H   0  0  0  0  0  0  0  0  0  0  0  0
    5.0240   -1.1170    0.9020 H   0  0  0  0  0  0  0  0  0  0  0  0
    0.8980   -2.5930    0.4940 H   0  0  0  0  0  0  0  0  0  0  0  0
    1.8100    2.0010    1.3650 H   0  0  0  0  0  0  0  0  0  0  0  0
    0.4570    4.0230    1.2160 H   0  0  0  0  0  0  0  0  0  0  0  0
   -1.8890    3.9140    0.4920 H   0  0  0  0  0  0  0  0  0  0  0  0
  1  2  1  0  0  0  0
  2  3  1  0  0  0  0
  2  4  1  0  0  0  0
  2  5  1  0  0  0  0
  5  6  1  0  0  0  0
  5 18  2  0  0  0  0
  6  7  2  0  0  0  0
  7  8  1  0  0  0  0
  7 22  1  0  0  0  0
  8  9  2  0  0  0  0
  8 19  1  0  0  0  0
  9 10  1  0  0  0  0
  9 18  1  0  0  0  0
 10 11  1  0  0  0  0
 10 12  1  0  0  0  0
 10 27  1  0  0  0  0
 11 28  1  0  0  0  0
 12 13  1  0  0  0  0
 12 17  1  0  0  0  0
 12 29  1  0  0  0  0
 13 14  1  0  0  0  0
 13 30  1  0  0  0  0
 14 15  1  0  0  0  0
 14 31  1  0  0  0  0
 14 32  1  0  0  0  0
 15 16  1  0  0  0  0
 15 33  1  0  0  0  0
 15 34  1  0  0  0  0
 16 17  1  0  0  0  0
 16 35  1  0  0  0  0
 16 36  1  0  0  0  0
 17 37  1  0  0  0  0
 17 38  1  0  0  0  0
 18 39  1  0  0  0  0
 19 20  2  0  0  0  0
 19 40  1  0  0  0  0
 20 21  1  0  0  0  0
 20 41  1  0  0  0  0
 21 22  2  0  0  0  0
 21 42  1  0  0  0  0
 22 23  1  0  0  0  0
 23 24  1  0  0  0  0
 23 25  1  0  0  0  0
 23 26  1  0  0  0  0
M  END
>  <UNIQUE_SMILES>
FC(F)(F)c1nc2c(C(F)(F)F)cccc2c(C(O)C2NCCCC2)c1

>  <USER_SUPPLIED_SMILES>
FC(F)(F)c1nc2c(C(F)(F)F)cccc2c(C(O)C2NCCCC2)c1

$$$$
C20H27N
  MOE2018           3D

 48 49  0  0  1  0  0  0  0  0999 V2000
    2.6350    1.3110   -1.3200 C   0  0  0  0  0  0  0  0  0  0  0  0
    2.0770    0.7220   -0.2010 C   0  0  0  0  0  0  0  0  0  0  0  0
    2.8740    0.4060    0.8840 C   0  0  0  0  0  0  0  0  0  0  0  0
    4.2290    0.6780    0.8490 C   0  0  0  0  0  0  0  0  0  0  0  0
    4.7870    1.2670   -0.2700 C   0  0  0  0  0  0  0  0  0  0  0  0
    3.9900    1.5840   -1.3540 C   0  0  0  0  0  0  0  0  0  0  0  0
    0.6000    0.4250   -0.1630 C   0  0  0  0  0  0  0  0  0  0  0  0
    0.3890   -1.0660   -0.0970 C   0  0  0  0  0  0  0  0  0  0  0  0
   -0.0270   -1.7550   -1.2200 C   0  0  0  0  0  0  0  0  0  0  0  0
   -0.2210   -3.1230   -1.1600 C   0  0  0  0  0  0  0  0  0  0  0  0
    0.0030   -3.8010    0.0240 C   0  0  0  0  0  0  0  0  0  0  0  0
    0.4200   -3.1120    1.1470 C   0  0  0  0  0  0  0  0  0  0  0  0
    0.6180   -1.7450    1.0850 C   0  0  0  0  0  0  0  0  0  0  0  0
   -0.0210    1.0830    1.0710 C   0  0  0  0  0  0  0  0  0  0  0  0
   -1.5380    0.8870    1.0440 C   0  0  3  0  0  0  0  0  0  0  0  0
   -2.1460    1.4350    2.3370 C   0  0  0  0  0  0  0  0  0  0  0  0
   -2.1040    1.6050   -0.1060 N   0  0  0  0  0  0  0  0  0  0  0  0
   -3.2530    0.8170   -0.5720 C   0  0  0  0  0  0  0  0  0  0  0  0
   -4.2120    0.5750    0.5960 C   0  0  0  0  0  0  0  0  0  0  0  0
   -3.9810    1.5820   -1.6790 C   0  0  0  0  0  0  0  0  0  0  0  0
   -2.7630   -0.5260   -1.1170 C   0  0  0  0  0  0  0  0  0  0  0  0
    2.0140    1.5540   -2.1690 H   0  0  0  0  0  0  0  0  0  0  0  0
    2.4380   -0.0540    1.7580 H   0  0  0  0  0  0  0  0  0  0  0  0
    4.8510    0.4320    1.6970 H   0  0  0  0  0  0  0  0  0  0  0  0
    5.8450    1.4800   -0.2970 H   0  0  0  0  0  0  0  0  0  0  0  0
    4.4260    2.0440   -2.2290 H   0  0  0  0  0  0  0  0  0  0  0  0
    0.1270    0.8190   -1.0620 H   0  0  0  0  0  0  0  0  0  0  0  0
   -0.2020   -1.2260   -2.1450 H   0  0  0  0  0  0  0  0  0  0  0  0
   -0.5470   -3.6610   -2.0370 H   0  0  0  0  0  0  0  0  0  0  0  0
   -0.1490   -4.8690    0.0710 H   0  0  0  0  0  0  0  0  0  0  0  0
    0.5940   -3.6410    2.0720 H   0  0  0  0  0  0  0  0  0  0  0  0
    0.9440   -1.2060    1.9630 H   0  0  0  0  0  0  0  0  0  0  0  0
    0.3880    0.6250    1.9720 H   0  0  0  0  0  0  0  0  0  0  0  0
    0.2080    2.1480    1.0680 H   0  0  0  0  0  0  0  0  0  0  0  0
   -1.7660   -0.1750    0.9570 H   0  0  0  0  0  0  0  0  0  0  0  0
   -2.0010    2.5140    2.3780 H   0  0  0  0  0  0  0  0  0  0  0  0
   -3.2120    1.2100    2.3600 H   0  0  0  0  0  0  0  0  0  0  0  0
   -1.6580    0.9700    3.1930 H   0  0  0  0  0  0  0  0  0  0  0  0
   -2.4730    2.4750    0.2480 H   0  0  0  0  0  0  0  0  0  0  0  0
   -4.4970    1.5300    1.0360 H   0  0  0  0  0  0  0  0  0  0  0  0
   -5.1030    0.0620    0.2340 H   0  0  0  0  0  0  0  0  0  0  0  0
   -3.7190   -0.0400    1.3490 H   0  0  0  0  0  0  0  0  0  0  0  0
   -3.2980    1.7550   -2.5110 H   0  0  0  0  0  0  0  0  0  0  0  0
   -4.8330    0.9980   -2.0250 H   0  0  0  0  0  0  0  0  0  0  0  0
   -4.3300    2.5390   -1.2910 H   0  0  0  0  0  0  0  0  0  0  0  0
   -2.3690   -1.1280   -0.2980 H   0  0  0  0  0  0  0  0  0  0  0  0
   -3.5940   -1.0520   -1.5880 H   0  0  0  0  0  0  0  0  0  0  0  0
   -1.9780   -0.3550   -1.8530 H   0  0  0  0  0  0  0  0  0  0  0  0
  1  2  1  0  0  0  0
  1  6  2  0  0  0  0
  1 22  1  0  0  0  0
  2  3  2  0  0  0  0
  2  7  1  0  0  0  0
  3  4  1  0  0  0  0
  3 23  1  0  0  0  0
  4  5  2  0  0  0  0
  4 24  1  0  0  0  0
  5  6  1  0  0  0  0
  5 25  1  0  0  0  0
  6 26  1  0  0  0  0
  7  8  1  0  0  0  0
  7 14  1  0  0  0  0
  7 27  1  0  0  0  0
  8  9  1  0  0  0  0
  8 13  2  0  0  0  0
  9 10  2  0  0  0  0
  9 28  1  0  0  0  0
 10 11  1  0  0  0  0
 10 29  1  0  0  0  0
 11 12  2  0  0  0  0
 11 30  1  0  0  0  0
 12 13  1  0  0  0  0
 12 31  1  0  0  0  0
 13 32  1  0  0  0  0
 14 15  1  0  0  0  0
 14 33  1  0  0  0  0
 14 34  1  0  0  0  0
 15 16  1  0  0  0  0
 15 17  1  0  0  0  0
 15 35  1  0  0  0  0
 16 36  1  0  0  0  0
 16 37  1  0  0  0  0
 16 38  1  0  0  0  0
 17 18  1  0  0  0  0
 17 39  1  0  0  0  0
 18 19  1  0  0  0  0
 18 20  1  0  0  0  0
 18 21  1  0  0  0  0
 19 40  1  0  0  0  0
 19 41  1  0  0  0  0
 19 42  1  0  0  0  0
 20 43  1  0  0  0  0
 20 44  1  0  0  0  0
 20 45  1  0  0  0  0
 21 46  1  0  0  0  0
 21 47  1  0  0  0  0
 21 48  1  0  0  0  0
M  END
>  <UNIQUE_SMILES>
N(C(C)(C)C)C(CC(c1ccccc1)c1ccccc1)C

>  <USER_SUPPLIED_SMILES>
N(C(C)(C)C)C(CC(c1ccccc1)c1ccccc1)C

$$$$
C16H13ClFNO
  MOE2018           3D

 33 35  0  0  1  0  0  0  0  0999 V2000
    2.9130    0.6290   -0.9040 C   0  0  0  0  0  0  0  0  0  0  0  0
    2.0170    0.0680   -0.0050 C   0  0  0  0  0  0  0  0  0  0  0  0
    2.4590   -0.8680    0.9200 C   0  0  0  0  0  0  0  0  0  0  0  0
    3.7890   -1.2400    0.9430 C   0  0  0  0  0  0  0  0  0  0  0  0
    4.6810   -0.6800    0.0450 C   0  0  0  0  0  0  0  0  0  0  0  0
    4.2420    0.2540   -0.8780 C   0  0  0  0  0  0  0  0  0  0  0  0
    5.9820   -1.0450    0.0690 F   0  0  0  0  0  0  0  0  0  0  0  0
    0.6680    0.4480   -0.0290 N   0  0  0  0  0  0  0  0  0  0  0  0
    0.2130    1.7400   -0.0310 C   0  0  0  0  0  0  0  0  0  0  0  0
   -1.1290    1.7530   -0.0580 C   0  0  0  0  0  0  0  0  0  0  0  0
   -1.5720    0.3560   -0.0740 C   0  0  0  0  0  0  0  0  0  0  0  0
   -0.4010   -0.4240   -0.0610 C   0  0  0  0  0  0  0  0  0  0  0  0
   -0.5020   -1.8110   -0.0720 C   0  0  0  0  0  0  0  0  0  0  0  0
   -1.7430   -2.4090   -0.0960 C   0  0  0  0  0  0  0  0  0  0  0  0
   -2.9000   -1.6400   -0.1090 C   0  0  0  0  0  0  0  0  0  0  0  0
   -2.8220   -0.2640   -0.1020 C   0  0  0  0  0  0  0  0  0  0  0  0
   -4.4520   -2.4160   -0.1410 Cl  0  0  0  0  0  0  0  0  0  0  0  0
   -2.0140    2.9730   -0.0680 C   0  0  3  0  0  0  0  0  0  0  0  0
   -2.4420    3.3040    1.3630 C   0  0  0  0  0  0  0  0  0  0  0  0
   -1.2940    4.0780   -0.6170 O   0  0  0  0  0  0  0  0  0  0  0  0
    2.5700    1.3550   -1.6270 H   0  0  0  0  0  0  0  0  0  0  0  0
    1.7630   -1.3060    1.6210 H   0  0  0  0  0  0  0  0  0  0  0  0
    4.1330   -1.9690    1.6620 H   0  0  0  0  0  0  0  0  0  0  0  0
    4.9400    0.6910   -1.5780 H   0  0  0  0  0  0  0  0  0  0  0  0
    0.8410    2.6180   -0.0140 H   0  0  0  0  0  0  0  0  0  0  0  0
    0.3900   -2.4180   -0.0630 H   0  0  0  0  0  0  0  0  0  0  0  0
   -1.8180   -3.4860   -0.1050 H   0  0  0  0  0  0  0  0  0  0  0  0
   -3.7230    0.3310   -0.1120 H   0  0  0  0  0  0  0  0  0  0  0  0
   -2.8970    2.7760   -0.6760 H   0  0  0  0  0  0  0  0  0  0  0  0
   -1.5590    3.5000    1.9710 H   0  0  0  0  0  0  0  0  0  0  0  0
   -3.0820    4.1860    1.3560 H   0  0  0  0  0  0  0  0  0  0  0  0
   -2.9920    2.4600    1.7820 H   0  0  0  0  0  0  0  0  0  0  0  0
   -0.5220    4.2180   -0.0510 H   0  0  0  0  0  0  0  0  0  0  0  0
  1  2  1  0  0  0  0
  1  6  2  0  0  0  0
  1 21  1  0  0  0  0
  2  3  2  0  0  0  0
  2  8  1  0  0  0  0
  3  4  1  0  0  0  0
  3 22  1  0  0  0  0
  4  5  2  0  0  0  0
  4 23  1  0  0  0  0
  5  6  1  0  0  0  0
  5  7  1  0  0  0  0
  6 24  1  0  0  0  0
  8  9  1  0  0  0  0
  8 12  1  0  0  0  0
  9 10  2  0  0  0  0
  9 25  1  0  0  0  0
 10 11  1  0  0  0  0
 10 18  1  0  0  0  0
 11 12  1  0  0  0  0
 11 16  2  0  0  0  0
 12 13  2  0  0  0  0
 13 14  1  0  0  0  0
 13 26  1  0  0  0  0
 14 15  2  0  0  0  0
 14 27  1  0  0  0  0
 15 16  1  0  0  0  0
 15 17  1  0  0  0  0
 16 28  1  0  0  0  0
 18 19  1  0  0  0  0
 18 20  1  0  0  0  0
 18 29  1  0  0  0  0
 19 30  1  0  0  0  0
 19 31  1  0  0  0  0
 19 32  1  0  0  0  0
 20 33  1  0  0  0  0
M  END
>  <UNIQUE_SMILES>
Clc1cc2c(C(O)C)cn(-c3ccc(F)cc3)c2cc1

>  <USER_SUPPLIED_SMILES>
Clc1cc2c(C(O)C)cn(-c3ccc(F)cc3)c2cc1

$$$$
C18H26ClN3
  MOE2018           3D

 48 49  0  0  1  0  0  0  0  0999 V2000
   -5.4530   -2.5690   -0.1610 Cl  0  0  0  0  0  0  0  0  0  0  0  0
   -4.1690   -1.4000   -0.1280 C   0  0  0  0  0  0  0  0  0  0  0  0
   -4.2700   -0.3160    0.6910 C   0  0  0  0  0  0  0  0  0  0  0  0
   -3.2350    0.6330    0.7220 C   0  0  0  0  0  0  0  0  0  0  0  0
   -3.3090    1.7080    1.5160 N   0  0  0  0  0  0  0  0  0  0  0  0
   -2.3490    2.6030    1.5550 C   0  0  0  0  0  0  0  0  0  0  0  0
   -1.2060    2.4860    0.7760 C   0  0  0  0  0  0  0  0  0  0  0  0
   -1.0600    1.3990   -0.0700 C   0  0  0  0  0  0  0  0  0  0  0  0
    0.0700    1.2550   -0.8610 N   0  0  0  0  0  0  0  0  0  0  0  0
    1.1340    2.2610   -0.8090 C   0  0  3  0  0  0  0  0  0  0  0  0
    2.4590    1.6240   -1.2310 C   0  0  0  0  0  0  0  0  0  0  0  0
    2.8610    0.5580   -0.2100 C   0  0  0  0  0  0  0  0  0  0  0  0
    4.1860   -0.0790   -0.6320 C   0  0  0  0  0  0  0  0  0  0  0  0
    4.5720   -1.1030    0.3480 N   0  0  0  0  0  0  0  0  0  0  0  0
    5.7060   -1.8360   -0.2300 C   0  0  0  0  0  0  0  0  0  0  0  0
    5.1970   -2.7890   -1.3130 C   0  0  0  0  0  0  0  0  0  0  0  0
    5.0870   -0.3880    1.5240 C   0  0  0  0  0  0  0  0  0  0  0  0
    5.1420   -1.3440    2.7180 C   0  0  0  0  0  0  0  0  0  0  0  0
    0.7950    3.4110   -1.7600 C   0  0  0  0  0  0  0  0  0  0  0  0
   -2.1010    0.4410   -0.1040 C   0  0  0  0  0  0  0  0  0  0  0  0
   -2.0280   -0.6860   -0.9330 C   0  0  0  0  0  0  0  0  0  0  0  0
   -3.0490   -1.5890   -0.9340 C   0  0  0  0  0  0  0  0  0  0  0  0
   -5.1440   -0.1850    1.3130 H   0  0  0  0  0  0  0  0  0  0  0  0
   -2.4520    3.4540    2.2120 H   0  0  0  0  0  0  0  0  0  0  0  0
   -0.4340    3.2400    0.8300 H   0  0  0  0  0  0  0  0  0  0  0  0
    0.1570    0.4880   -1.4480 H   0  0  0  0  0  0  0  0  0  0  0  0
    1.2220    2.6440    0.2080 H   0  0  0  0  0  0  0  0  0  0  0  0
    2.3450    1.1630   -2.2120 H   0  0  0  0  0  0  0  0  0  0  0  0
    3.2320    2.3920   -1.2780 H   0  0  0  0  0  0  0  0  0  0  0  0
    2.9750    1.0190    0.7710 H   0  0  0  0  0  0  0  0  0  0  0  0
    2.0880   -0.2090   -0.1630 H   0  0  0  0  0  0  0  0  0  0  0  0
    4.0720   -0.5400   -1.6130 H   0  0  0  0  0  0  0  0  0  0  0  0
    4.9590    0.6880   -0.6790 H   0  0  0  0  0  0  0  0  0  0  0  0
    6.4090   -1.1290   -0.6700 H   0  0  0  0  0  0  0  0  0  0  0  0
    6.2060   -2.4070    0.5510 H   0  0  0  0  0  0  0  0  0  0  0  0
    6.0220   -3.4060   -1.6710 H   0  0  0  0  0  0  0  0  0  0  0  0
    4.4190   -3.4300   -0.8970 H   0  0  0  0  0  0  0  0  0  0  0  0
    4.7880   -2.2120   -2.1420 H   0  0  0  0  0  0  0  0  0  0  0  0
    6.0890   -0.0140    1.3120 H   0  0  0  0  0  0  0  0  0  0  0  0
    4.4290    0.4480    1.7580 H   0  0  0  0  0  0  0  0  0  0  0  0
    5.5690   -0.8280    3.5770 H   0  0  0  0  0  0  0  0  0  0  0  0
    4.1330   -1.6800    2.9610 H   0  0  0  0  0  0  0  0  0  0  0  0
    5.7600   -2.2050    2.4660 H   0  0  0  0  0  0  0  0  0  0  0  0
    0.7060    3.0280   -2.7760 H   0  0  0  0  0  0  0  0  0  0  0  0
   -0.1500    3.8650   -1.4590 H   0  0  0  0  0  0  0  0  0  0  0  0
    1.5860    4.1600   -1.7210 H   0  0  0  0  0  0  0  0  0  0  0  0
   -1.1670   -0.8400   -1.5660 H   0  0  0  0  0  0  0  0  0  0  0  0
   -2.9920   -2.4580   -1.5740 H   0  0  0  0  0  0  0  0  0  0  0  0
  1  2  1  0  0  0  0
  2  3  1  0  0  0  0
  2 22  2  0  0  0  0
  3  4  2  0  0  0  0
  3 23  1  0  0  0  0
  4  5  1  0  0  0  0
  4 20  1  0  0  0  0
  5  6  2  0  0  0  0
  6  7  1  0  0  0  0
  6 24  1  0  0  0  0
  7  8  2  0  0  0  0
  7 25  1  0  0  0  0
  8  9  1  0  0  0  0
  8 20  1  0  0  0  0
  9 10  1  0  0  0  0
  9 26  1  0  0  0  0
 10 11  1  0  0  0  0
 10 19  1  0  0  0  0
 10 27  1  0  0  0  0
 11 12  1  0  0  0  0
 11 28  1  0  0  0  0
 11 29  1  0  0  0  0
 12 13  1  0  0  0  0
 12 30  1  0  0  0  0
 12 31  1  0  0  0  0
 13 14  1  0  0  0  0
 13 32  1  0  0  0  0
 13 33  1  0  0  0  0
 14 15  1  0  0  0  0
 14 17  1  0  0  0  0
 15 16  1  0  0  0  0
 15 34  1  0  0  0  0
 15 35  1  0  0  0  0
 16 36  1  0  0  0  0
 16 37  1  0  0  0  0
 16 38  1  0  0  0  0
 17 18  1  0  0  0  0
 17 39  1  0  0  0  0
 17 40  1  0  0  0  0
 18 41  1  0  0  0  0
 18 42  1  0  0  0  0
 18 43  1  0  0  0  0
 19 44  1  0  0  0  0
 19 45  1  0  0  0  0
 19 46  1  0  0  0  0
 20 21  2  0  0  0  0
 21 22  1  0  0  0  0
 21 47  1  0  0  0  0
 22 48  1  0  0  0  0
M  END
>  <UNIQUE_SMILES>
Clc1cc2nccc(NC(CCCN(CC)CC)C)c2cc1

>  <USER_SUPPLIED_SMILES>
Clc1cc2nccc(NC(CCCN(CC)CC)C)c2cc1

$$$$
C17H21NO
  MOE2018           3D

 40 41  0  0  0  0  0  0  0  0999 V2000
    0.9480   -0.1890   -0.1210 O   0  0  0  0  0  0  0  0  0  0  0  0
   -0.2740   -0.0060    0.5960 C   0  0  0  0  0  0  0  0  0  0  0  0
   -0.8810    1.3220    0.2250 C   0  0  0  0  0  0  0  0  0  0  0  0
   -1.4740    2.1070    1.1960 C   0  0  0  0  0  0  0  0  0  0  0  0
   -2.0300    3.3260    0.8560 C   0  0  0  0  0  0  0  0  0  0  0  0
   -1.9930    3.7600   -0.4560 C   0  0  0  0  0  0  0  0  0  0  0  0
   -1.3990    2.9760   -1.4270 C   0  0  0  0  0  0  0  0  0  0  0  0
   -0.8390    1.7590   -1.0860 C   0  0  0  0  0  0  0  0  0  0  0  0
   -1.2340   -1.1130    0.2420 C   0  0  0  0  0  0  0  0  0  0  0  0
   -2.0970   -1.6120    1.2000 C   0  0  0  0  0  0  0  0  0  0  0  0
   -2.9780   -2.6270    0.8760 C   0  0  0  0  0  0  0  0  0  0  0  0
   -2.9960   -3.1430   -0.4070 C   0  0  0  0  0  0  0  0  0  0  0  0
   -2.1340   -2.6430   -1.3650 C   0  0  0  0  0  0  0  0  0  0  0  0
   -1.2560   -1.6250   -1.0410 C   0  0  0  0  0  0  0  0  0  0  0  0
    1.7920   -0.9970    0.7020 C   0  0  0  0  0  0  0  0  0  0  0  0
    3.1260   -1.2320   -0.0120 C   0  0  0  0  0  0  0  0  0  0  0  0
    3.8270    0.0490   -0.1720 N   0  0  0  0  0  0  0  0  0  0  0  0
    4.3850    0.3930    1.1430 C   0  0  0  0  0  0  0  0  0  0  0  0
    4.9690   -0.2040   -1.0620 C   0  0  0  0  0  0  0  0  0  0  0  0
   -0.0740   -0.0280    1.6670 H   0  0  0  0  0  0  0  0  0  0  0  0
   -1.5030    1.7680    2.2210 H   0  0  0  0  0  0  0  0  0  0  0  0
   -2.4940    3.9390    1.6140 H   0  0  0  0  0  0  0  0  0  0  0  0
   -2.4280    4.7120   -0.7220 H   0  0  0  0  0  0  0  0  0  0  0  0
   -1.3700    3.3150   -2.4520 H   0  0  0  0  0  0  0  0  0  0  0  0
   -0.3750    1.1470   -1.8450 H   0  0  0  0  0  0  0  0  0  0  0  0
   -2.0830   -1.2090    2.2020 H   0  0  0  0  0  0  0  0  0  0  0  0
   -3.6510   -3.0170    1.6240 H   0  0  0  0  0  0  0  0  0  0  0  0
   -3.6830   -3.9360   -0.6600 H   0  0  0  0  0  0  0  0  0  0  0  0
   -2.1470   -3.0460   -2.3670 H   0  0  0  0  0  0  0  0  0  0  0  0
   -0.5820   -1.2350   -1.7900 H   0  0  0  0  0  0  0  0  0  0  0  0
    1.9720   -0.4880    1.6490 H   0  0  0  0  0  0  0  0  0  0  0  0
    1.3080   -1.9550    0.8900 H   0  0  0  0  0  0  0  0  0  0  0  0
    3.7400   -1.9100    0.5800 H   0  0  0  0  0  0  0  0  0  0  0  0
    2.9410   -1.6700   -0.9920 H   0  0  0  0  0  0  0  0  0  0  0  0
    5.0740   -0.3900    1.4610 H   0  0  0  0  0  0  0  0  0  0  0  0
    4.9180    1.3410    1.0750 H   0  0  0  0  0  0  0  0  0  0  0  0
    3.5760    0.4820    1.8680 H   0  0  0  0  0  0  0  0  0  0  0  0
    5.5740    0.7000   -1.1420 H   0  0  0  0  0  0  0  0  0  0  0  0
    5.5750   -1.0120   -0.6540 H   0  0  0  0  0  0  0  0  0  0  0  0
    4.6040   -0.4850   -2.0500 H   0  0  0  0  0  0  0  0  0  0  0  0
  1  2  1  0  0  0  0
  1 15  1  0  0  0  0
  2  3  1  0  0  0  0
  2  9  1  0  0  0  0
  2 20  1  0  0  0  0
  3  4  1  0  0  0  0
  3  8  2  0  0  0  0
  4  5  2  0  0  0  0
  4 21  1  0  0  0  0
  5  6  1  0  0  0  0
  5 22  1  0  0  0  0
  6  7  2  0  0  0  0
  6 23  1  0  0  0  0
  7  8  1  0  0  0  0
  7 24  1  0  0  0  0
  8 25  1  0  0  0  0
  9 10  1  0  0  0  0
  9 14  2  0  0  0  0
 10 11  2  0  0  0  0
 10 26  1  0  0  0  0
 11 12  1  0  0  0  0
 11 27  1  0  0  0  0
 12 13  2  0  0  0  0
 12 28  1  0  0  0  0
 13 14  1  0  0  0  0
 13 29  1  0  0  0  0
 14 30  1  0  0  0  0
 15 16  1  0  0  0  0
 15 31  1  0  0  0  0
 15 32  1  0  0  0  0
 16 17  1  0  0  0  0
 16 33  1  0  0  0  0
 16 34  1  0  0  0  0
 17 18  1  0  0  0  0
 17 19  1  0  0  0  0
 18 35  1  0  0  0  0
 18 36  1  0  0  0  0
 18 37  1  0  0  0  0
 19 38  1  0  0  0  0
 19 39  1  0  0  0  0
 19 40  1  0  0  0  0
M  END
>  <UNIQUE_SMILES>
O(C(c1ccccc1)c1ccccc1)CCN(C)C

>  <USER_SUPPLIED_SMILES>
O(C(c1ccccc1)c1ccccc1)CCN(C)C

$$$$
C17H20F6N2O3
  MOE2018           3D

 48 49  0  0  1  0  0  0  0  0999 V2000
   -1.4570   -5.2850    1.0670 F   0  0  0  0  0  0  0  0  0  0  0  0
   -2.0930   -4.8620   -0.1060 C   0  0  0  0  0  0  0  0  0  0  0  0
   -1.3240   -5.2350   -1.2140 F   0  0  0  0  0  0  0  0  0  0  0  0
   -3.3550   -5.4580   -0.1920 F   0  0  0  0  0  0  0  0  0  0  0  0
   -2.2480   -3.3400   -0.0810 C   0  0  0  0  0  0  0  0  0  0  0  0
   -0.9580   -2.7310    0.0070 O   0  0  0  0  0  0  0  0  0  0  0  0
   -1.1580   -1.3890    0.0250 C   0  0  0  0  0  0  0  0  0  0  0  0
   -0.0650   -0.5170    0.1080 C   0  0  0  0  0  0  0  0  0  0  0  0
    1.3080   -1.0530    0.1750 C   0  0  0  0  0  0  0  0  0  0  0  0
    1.4930   -2.2540    0.1590 O   0  0  0  0  0  0  0  0  0  0  0  0
    2.3570   -0.2110    0.2550 N   0  0  0  0  0  0  0  0  0  0  0  0
    3.7200   -0.7430    0.3220 C   0  0  0  0  0  0  0  0  0  0  0  0
    4.7170    0.4150    0.4050 C   0  0  3  0  0  0  0  0  0  0  0  0
    6.1430   -0.1360    0.3500 C   0  0  0  0  0  0  0  0  0  0  0  0
    7.1360    1.0240    0.4710 C   0  0  0  0  0  0  0  0  0  0  0  0
    6.8360    2.0520   -0.6250 C   0  0  0  0  0  0  0  0  0  0  0  0
    5.3740    2.4880   -0.5180 C   0  0  0  0  0  0  0  0  0  0  0  0
    4.4950    1.3320   -0.7180 N   0  0  0  0  0  0  0  0  0  0  0  0
   -0.2810    0.8630    0.1260 C   0  0  0  0  0  0  0  0  0  0  0  0
   -1.5700    1.3590    0.0610 C   0  0  0  0  0  0  0  0  0  0  0  0
   -1.7820    2.7020    0.0790 O   0  0  0  0  0  0  0  0  0  0  0  0
   -3.1960    2.8980    0.0010 C   0  0  0  0  0  0  0  0  0  0  0  0
   -3.5040    4.3960    0.0160 C   0  0  0  0  0  0  0  0  0  0  0  0
   -2.8870    5.0110   -1.0790 F   0  0  0  0  0  0  0  0  0  0  0  0
   -4.8880    4.5880   -0.0600 F   0  0  0  0  0  0  0  0  0  0  0  0
   -3.0200    4.9600    1.2010 F   0  0  0  0  0  0  0  0  0  0  0  0
   -2.6500    0.4880   -0.0210 C   0  0  0  0  0  0  0  0  0  0  0  0
   -2.4450   -0.8770   -0.0440 C   0  0  0  0  0  0  0  0  0  0  0  0
   -2.7430   -3.0110   -0.9940 H   0  0  0  0  0  0  0  0  0  0  0  0
   -2.8460   -3.0500    0.7820 H   0  0  0  0  0  0  0  0  0  0  0  0
    2.2100    0.7480    0.2680 H   0  0  0  0  0  0  0  0  0  0  0  0
    3.8210   -1.3730    1.2050 H   0  0  0  0  0  0  0  0  0  0  0  0
    3.9240   -1.3340   -0.5710 H   0  0  0  0  0  0  0  0  0  0  0  0
    4.5720    0.9510    1.3430 H   0  0  0  0  0  0  0  0  0  0  0  0
    6.2960   -0.8340    1.1730 H   0  0  0  0  0  0  0  0  0  0  0  0
    6.2980   -0.6500   -0.5990 H   0  0  0  0  0  0  0  0  0  0  0  0
    7.0320    1.4930    1.4490 H   0  0  0  0  0  0  0  0  0  0  0  0
    8.1520    0.6490    0.3510 H   0  0  0  0  0  0  0  0  0  0  0  0
    7.4850    2.9190   -0.4990 H   0  0  0  0  0  0  0  0  0  0  0  0
    7.0120    1.6040   -1.6030 H   0  0  0  0  0  0  0  0  0  0  0  0
    5.1940    2.9140    0.4690 H   0  0  0  0  0  0  0  0  0  0  0  0
    5.1630    3.2400   -1.2800 H   0  0  0  0  0  0  0  0  0  0  0  0
    4.8220    0.8590   -1.5470 H   0  0  0  0  0  0  0  0  0  0  0  0
    0.5570    1.5420    0.1890 H   0  0  0  0  0  0  0  0  0  0  0  0
   -3.5730    2.4580   -0.9230 H   0  0  0  0  0  0  0  0  0  0  0  0
   -3.6760    2.4200    0.8540 H   0  0  0  0  0  0  0  0  0  0  0  0
   -3.6550    0.8810   -0.0710 H   0  0  0  0  0  0  0  0  0  0  0  0
   -3.2890   -1.5480   -0.1090 H   0  0  0  0  0  0  0  0  0  0  0  0
  1  2  1  0  0  0  0
  2  3  1  0  0  0  0
  2  4  1  0  0  0  0
  2  5  1  0  0  0  0
  5  6  1  0  0  0  0
  5 29  1  0  0  0  0
  5 30  1  0  0  0  0
  6  7  1  0  0  0  0
  7  8  1  0  0  0  0
  7 28  2  0  0  0  0
  8  9  1  0  0  0  0
  8 19  2  0  0  0  0
  9 10  2  0  0  0  0
  9 11  1  0  0  0  0
 11 12  1  0  0  0  0
 11 31  1  0  0  0  0
 12 13  1  0  0  0  0
 12 32  1  0  0  0  0
 12 33  1  0  0  0  0
 13 14  1  0  0  0  0
 13 18  1  0  0  0  0
 13 34  1  0  0  0  0
 14 15  1  0  0  0  0
 14 35  1  0  0  0  0
 14 36  1  0  0  0  0
 15 16  1  0  0  0  0
 15 37  1  0  0  0  0
 15 38  1  0  0  0  0
 16 17  1  0  0  0  0
 16 39  1  0  0  0  0
 16 40  1  0  0  0  0
 17 18  1  0  0  0  0
 17 41  1  0  0  0  0
 17 42  1  0  0  0  0
 18 43  1  0  0  0  0
 19 20  1  0  0  0  0
 19 44  1  0  0  0  0
 20 21  1  0  0  0  0
 20 27  2  0  0  0  0
 21 22  1  0  0  0  0
 22 23  1  0  0  0  0
 22 45  1  0  0  0  0
 22 46  1  0  0  0  0
 23 24  1  0  0  0  0
 23 25  1  0  0  0  0
 23 26  1  0  0  0  0
 27 28  1  0  0  0  0
 27 47  1  0  0  0  0
 28 48  1  0  0  0  0
M  END
>  <UNIQUE_SMILES>
FC(F)(F)COc1c(C(=O)NCC2NCCCC2)cc(OCC(F)(F)F)cc1

>  <USER_SUPPLIED_SMILES>
FC(F)(F)COc1c(C(=O)NCC2NCCCC2)cc(OCC(F)(F)F)cc1

$$$$
C30H32Cl3NO
  MOE2018           3D

 67 70  0  0  1  0  0  0  0  0999 V2000
   -0.2410    3.5510   -0.3100 C   0  0  0  0  0  0  0  0  0  0  0  0
   -0.5770    2.2000   -0.2460 C   0  0  0  0  0  0  0  0  0  0  0  0
    0.4020    1.2240   -0.5030 C   0  0  0  0  0  0  0  0  0  0  0  0
    1.7000    1.6210   -0.8190 C   0  0  0  0  0  0  0  0  0  0  0  0
    2.0160    2.9630   -0.8790 C   0  0  0  0  0  0  0  0  0  0  0  0
    1.0500    3.9250   -0.6240 C   0  0  0  0  0  0  0  0  0  0  0  0
    1.4670    5.6080   -0.7040 Cl  0  0  0  0  0  0  0  0  0  0  0  0
    2.7590    0.5850   -1.0960 C   0  0  3  0  0  0  0  0  0  0  0  0
    3.7750    1.1520   -1.9260 O   0  0  0  0  0  0  0  0  0  0  0  0
    3.3790    0.1250    0.2250 C   0  0  0  0  0  0  0  0  0  0  0  0
    4.4110   -0.8850   -0.0450 N   0  0  0  0  0  0  0  0  0  0  0  0
    5.1270   -1.1050    1.2190 C   0  0  0  0  0  0  0  0  0  0  0  0
    6.0860    0.0610    1.4710 C   0  0  0  0  0  0  0  0  0  0  0  0
    6.9290   -0.2320    2.7140 C   0  0  0  0  0  0  0  0  0  0  0  0
    7.8870    0.9330    2.9660 C   0  0  0  0  0  0  0  0  0  0  0  0
    3.7070   -2.1370   -0.3540 C   0  0  0  0  0  0  0  0  0  0  0  0
    4.7130   -3.1800   -0.8440 C   0  0  0  0  0  0  0  0  0  0  0  0
    3.9960   -4.5130   -1.0710 C   0  0  0  0  0  0  0  0  0  0  0  0
    5.0010   -5.5560   -1.5610 C   0  0  0  0  0  0  0  0  0  0  0  0
   -0.2170   -0.1120   -0.3680 C   0  0  0  0  0  0  0  0  0  0  0  0
   -1.5720    0.0520   -0.0300 C   0  0  0  0  0  0  0  0  0  0  0  0
   -1.8440    1.5020    0.0580 C   0  0  0  0  0  0  0  0  0  0  0  0
   -3.0330    2.0840    0.3610 C   0  0  0  0  0  0  0  0  0  0  0  0
   -4.2620    1.2790    0.3750 C   0  0  0  0  0  0  0  0  0  0  0  0
   -5.1870    1.4240    1.4160 C   0  0  0  0  0  0  0  0  0  0  0  0
   -6.3370    0.6660    1.4210 C   0  0  0  0  0  0  0  0  0  0  0  0
   -6.5800   -0.2390    0.4000 C   0  0  0  0  0  0  0  0  0  0  0  0
   -5.6700   -0.3880   -0.6340 C   0  0  0  0  0  0  0  0  0  0  0  0
   -4.5180    0.3680   -0.6560 C   0  0  0  0  0  0  0  0  0  0  0  0
   -8.0320   -1.1900    0.4160 Cl  0  0  0  0  0  0  0  0  0  0  0  0
   -2.3800   -1.0670    0.1550 C   0  0  0  0  0  0  0  0  0  0  0  0
   -1.8480   -2.3330    0.0050 C   0  0  0  0  0  0  0  0  0  0  0  0
   -0.5130   -2.4960   -0.3280 C   0  0  0  0  0  0  0  0  0  0  0  0
    0.3020   -1.3980   -0.5150 C   0  0  0  0  0  0  0  0  0  0  0  0
   -2.8570   -3.7260    0.2350 Cl  0  0  0  0  0  0  0  0  0  0  0  0
   -0.9910    4.3040   -0.1180 H   0  0  0  0  0  0  0  0  0  0  0  0
    3.0230    3.2660   -1.1240 H   0  0  0  0  0  0  0  0  0  0  0  0
    2.3090   -0.2680   -1.6030 H   0  0  0  0  0  0  0  0  0  0  0  0
    4.1460    1.9020   -1.4420 H   0  0  0  0  0  0  0  0  0  0  0  0
    3.8290    0.9780    0.7320 H   0  0  0  0  0  0  0  0  0  0  0  0
    2.6050   -0.3080    0.8580 H   0  0  0  0  0  0  0  0  0  0  0  0
    4.4100   -1.1690    2.0370 H   0  0  0  0  0  0  0  0  0  0  0  0
    5.6940   -2.0340    1.1590 H   0  0  0  0  0  0  0  0  0  0  0  0
    6.7410    0.1860    0.6090 H   0  0  0  0  0  0  0  0  0  0  0  0
    5.5130    0.9750    1.6280 H   0  0  0  0  0  0  0  0  0  0  0  0
    6.2740   -0.3570    3.5760 H   0  0  0  0  0  0  0  0  0  0  0  0
    7.5020   -1.1460    2.5570 H   0  0  0  0  0  0  0  0  0  0  0  0
    8.4880    0.7250    3.8520 H   0  0  0  0  0  0  0  0  0  0  0  0
    8.5420    1.0580    2.1040 H   0  0  0  0  0  0  0  0  0  0  0  0
    7.3140    1.8470    3.1230 H   0  0  0  0  0  0  0  0  0  0  0  0
    3.2090   -2.5050    0.5430 H   0  0  0  0  0  0  0  0  0  0  0  0
    2.9650   -1.9540   -1.1320 H   0  0  0  0  0  0  0  0  0  0  0  0
    5.1590   -2.8440   -1.7800 H   0  0  0  0  0  0  0  0  0  0  0  0
    5.4940   -3.3110   -0.0950 H   0  0  0  0  0  0  0  0  0  0  0  0
    3.5500   -4.8490   -0.1350 H   0  0  0  0  0  0  0  0  0  0  0  0
    3.2140   -4.3820   -1.8190 H   0  0  0  0  0  0  0  0  0  0  0  0
    4.4900   -6.5060   -1.7220 H   0  0  0  0  0  0  0  0  0  0  0  0
    5.4470   -5.2200   -2.4960 H   0  0  0  0  0  0  0  0  0  0  0  0
    5.7830   -5.6870   -0.8120 H   0  0  0  0  0  0  0  0  0  0  0  0
   -3.0760    3.1380    0.5930 H   0  0  0  0  0  0  0  0  0  0  0  0
   -4.9990    2.1280    2.2130 H   0  0  0  0  0  0  0  0  0  0  0  0
   -7.0510    0.7760    2.2240 H   0  0  0  0  0  0  0  0  0  0  0  0
   -5.8660   -1.0950   -1.4260 H   0  0  0  0  0  0  0  0  0  0  0  0
   -3.8090    0.2510   -1.4630 H   0  0  0  0  0  0  0  0  0  0  0  0
   -3.4220   -0.9450    0.4150 H   0  0  0  0  0  0  0  0  0  0  0  0
   -0.1060   -3.4900   -0.4430 H   0  0  0  0  0  0  0  0  0  0  0  0
    1.3410   -1.5340   -0.7750 H   0  0  0  0  0  0  0  0  0  0  0  0
  1  2  1  0  0  0  0
  1  6  2  0  0  0  0
  1 36  1  0  0  0  0
  2  3  2  0  0  0  0
  2 22  1  0  0  0  0
  3  4  1  0  0  0  0
  3 20  1  0  0  0  0
  4  5  2  0  0  0  0
  4  8  1  0  0  0  0
  5  6  1  0  0  0  0
  5 37  1  0  0  0  0
  6  7  1  0  0  0  0
  8  9  1  0  0  0  0
  8 10  1  0  0  0  0
  8 38  1  0  0  0  0
  9 39  1  0  0  0  0
 10 11  1  0  0  0  0
 10 40  1  0  0  0  0
 10 41  1  0  0  0  0
 11 12  1  0  0  0  0
 11 16  1  0  0  0  0
 12 13  1  0  0  0  0
 12 42  1  0  0  0  0
 12 43  1  0  0  0  0
 13 14  1  0  0  0  0
 13 44  1  0  0  0  0
 13 45  1  0  0  0  0
 14 15  1  0  0  0  0
 14 46  1  0  0  0  0
 14 47  1  0  0  0  0
 15 48  1  0  0  0  0
 15 49  1  0  0  0  0
 15 50  1  0  0  0  0
 16 17  1  0  0  0  0
 16 51  1  0  0  0  0
 16 52  1  0  0  0  0
 17 18  1  0  0  0  0
 17 53  1  0  0  0  0
 17 54  1  0  0  0  0
 18 19  1  0  0  0  0
 18 55  1  0  0  0  0
 18 56  1  0  0  0  0
 19 57  1  0  0  0  0
 19 58  1  0  0  0  0
 19 59  1  0  0  0  0
 20 21  1  0  0  0  0
 20 34  2  0  0  0  0
 21 22  1  0  0  0  0
 21 31  2  0  0  0  0
 22 23  2  0  0  0  0
 23 24  1  0  0  0  0
 23 60  1  0  0  0  0
 24 25  1  0  0  0  0
 24 29  2  0  0  0  0
 25 26  2  0  0  0  0
 25 61  1  0  0  0  0
 26 27  1  0  0  0  0
 26 62  1  0  0  0  0
 27 28  2  0  0  0  0
 27 30  1  0  0  0  0
 28 29  1  0  0  0  0
 28 63  1  0  0  0  0
 29 64  1  0  0  0  0
 31 32  1  0  0  0  0
 31 65  1  0  0  0  0
 32 33  2  0  0  0  0
 32 35  1  0  0  0  0
 33 34  1  0  0  0  0
 33 66  1  0  0  0  0
 34 67  1  0  0  0  0
M  END
>  <UNIQUE_SMILES>
Clc1cc(C(O)CN(CCCC)CCCC)c-2c(/C(=C/c3ccc(Cl)cc3)/c3c-2ccc(Cl)c3)c1

>  <USER_SUPPLIED_SMILES>
Clc1cc(C(O)CN(CCCC)CCCC)c-2c(/C(=C/c3ccc(Cl)cc3)/c3c-2ccc(Cl)c3)c1

$$$$
C29H38FN3O3
  MOE2018           3D

 74 77  0  0  1  0  0  0  0  0999 V2000
   -7.8630   -2.7950   -1.0440 F   0  0  0  0  0  0  0  0  0  0  0  0
   -6.6050   -2.3770   -0.7820 C   0  0  0  0  0  0  0  0  0  0  0  0
   -6.3890   -1.3490    0.1170 C   0  0  0  0  0  0  0  0  0  0  0  0
   -5.1000   -0.9130    0.3920 C   0  0  0  0  0  0  0  0  0  0  0  0
   -4.0280   -1.5130   -0.2320 C   0  0  0  0  0  0  0  0  0  0  0  0
   -2.6040   -1.0980    0.0270 C   0  0  3  0  0  0  0  0  0  0  0  0
   -2.5560    0.2850    0.6720 C   0  0  3  0  0  0  0  0  0  0  0  0
   -2.9870    1.2870   -0.2870 O   0  0  0  0  0  0  0  0  0  0  0  0
   -3.0360    2.5800    0.0700 C   0  0  0  0  0  0  0  0  0  0  0  0
   -2.8140    2.9000    1.2140 O   0  0  0  0  0  0  0  0  0  0  0  0
   -3.3700    3.6330   -0.9560 C   0  0  0  0  0  0  0  0  0  0  0  0
   -3.3600    4.9210   -0.3370 O   0  0  0  0  0  0  0  0  0  0  0  0
   -3.6820    5.8700   -1.3550 C   0  0  0  0  0  0  0  0  0  0  0  0
   -3.4990    0.2880    1.8810 C   0  0  0  0  0  0  0  0  0  0  0  0
   -4.9370    0.2210    1.3700 C   0  0  0  0  0  0  0  0  0  0  0  0
   -1.1290    0.5920    1.1300 C   0  0  0  0  0  0  0  0  0  0  0  0
   -0.1680    0.4260   -0.0490 C   0  0  0  0  0  0  0  0  0  0  0  0
    1.2130    0.6170    0.4150 N   0  0  0  0  0  0  0  0  0  0  0  0
    2.0900    0.2100   -0.6920 C   0  0  0  0  0  0  0  0  0  0  0  0
    3.5360    0.1450   -0.1990 C   0  0  0  0  0  0  0  0  0  0  0  0
    4.4490   -0.2790   -1.3520 C   0  0  0  0  0  0  0  0  0  0  0  0
    5.8740   -0.3430   -0.8660 C   0  0  0  0  0  0  0  0  0  0  0  0
    6.6850   -1.4310   -0.9700 N   0  0  0  0  0  0  0  0  0  0  0  0
    7.9020   -1.0910   -0.4140 C   0  0  0  0  0  0  0  0  0  0  0  0
    7.7720    0.2390    0.0200 C   0  0  0  0  0  0  0  0  0  0  0  0
    6.5110    0.6350   -0.2910 N   0  0  0  0  0  0  0  0  0  0  0  0
    8.8560    0.8700    0.6350 C   0  0  0  0  0  0  0  0  0  0  0  0
   10.0300    0.1930    0.8080 C   0  0  0  0  0  0  0  0  0  0  0  0
   10.1580   -1.1210    0.3800 C   0  0  0  0  0  0  0  0  0  0  0  0
    9.1020   -1.7640   -0.2280 C   0  0  0  0  0  0  0  0  0  0  0  0
    1.4030    2.0620    0.5940 C   0  0  0  0  0  0  0  0  0  0  0  0
   -1.9440   -2.1140    0.9620 C   0  0  0  0  0  0  0  0  0  0  0  0
   -2.9540   -2.5650    2.0190 C   0  0  0  0  0  0  0  0  0  0  0  0
   -1.4780   -3.3250    0.1520 C   0  0  0  0  0  0  0  0  0  0  0  0
   -4.2470   -2.5440   -1.1360 C   0  0  0  0  0  0  0  0  0  0  0  0
   -5.5270   -2.9800   -1.4070 C   0  0  0  0  0  0  0  0  0  0  0  0
   -7.2290   -0.8820    0.6080 H   0  0  0  0  0  0  0  0  0  0  0  0
   -2.0590   -1.0730   -0.9170 H   0  0  0  0  0  0  0  0  0  0  0  0
   -2.6290    3.6080   -1.7550 H   0  0  0  0  0  0  0  0  0  0  0  0
   -4.3580    3.4360   -1.3700 H   0  0  0  0  0  0  0  0  0  0  0  0
   -3.6870    6.8730   -0.9280 H   0  0  0  0  0  0  0  0  0  0  0  0
   -2.9370    5.8170   -2.1500 H   0  0  0  0  0  0  0  0  0  0  0  0
   -4.6660    5.6450   -1.7650 H   0  0  0  0  0  0  0  0  0  0  0  0
   -3.2920   -0.5780    2.5100 H   0  0  0  0  0  0  0  0  0  0  0  0
   -3.3560    1.2030    2.4560 H   0  0  0  0  0  0  0  0  0  0  0  0
   -5.1880    1.1600    0.8770 H   0  0  0  0  0  0  0  0  0  0  0  0
   -5.6110    0.0670    2.2130 H   0  0  0  0  0  0  0  0  0  0  0  0
   -1.0780    1.6160    1.5000 H   0  0  0  0  0  0  0  0  0  0  0  0
   -0.8480   -0.0970    1.9280 H   0  0  0  0  0  0  0  0  0  0  0  0
   -0.2760   -0.5740   -0.4680 H   0  0  0  0  0  0  0  0  0  0  0  0
   -0.4000    1.1680   -0.8130 H   0  0  0  0  0  0  0  0  0  0  0  0
    1.7850   -0.7710   -1.0550 H   0  0  0  0  0  0  0  0  0  0  0  0
    2.0140    0.9370   -1.5010 H   0  0  0  0  0  0  0  0  0  0  0  0
    3.8410    1.1260    0.1640 H   0  0  0  0  0  0  0  0  0  0  0  0
    3.6120   -0.5820    0.6100 H   0  0  0  0  0  0  0  0  0  0  0  0
    4.1440   -1.2600   -1.7150 H   0  0  0  0  0  0  0  0  0  0  0  0
    4.3740    0.4480   -2.1610 H   0  0  0  0  0  0  0  0  0  0  0  0
    8.7670    1.8920    0.9720 H   0  0  0  0  0  0  0  0  0  0  0  0
   10.8660    0.6840    1.2840 H   0  0  0  0  0  0  0  0  0  0  0  0
   11.0930   -1.6430    0.5240 H   0  0  0  0  0  0  0  0  0  0  0  0
    9.2070   -2.7870   -0.5600 H   0  0  0  0  0  0  0  0  0  0  0  0
    2.4180    2.2550    0.9390 H   0  0  0  0  0  0  0  0  0  0  0  0
    1.2390    2.5710   -0.3560 H   0  0  0  0  0  0  0  0  0  0  0  0
    0.6920    2.4330    1.3320 H   0  0  0  0  0  0  0  0  0  0  0  0
   -1.0860   -1.6530    1.4520 H   0  0  0  0  0  0  0  0  0  0  0  0
   -3.9580   -2.5450    1.5940 H   0  0  0  0  0  0  0  0  0  0  0  0
   -2.7150   -3.5790    2.3400 H   0  0  0  0  0  0  0  0  0  0  0  0
   -2.9090   -1.8920    2.8750 H   0  0  0  0  0  0  0  0  0  0  0  0
   -2.3340   -3.7820   -0.3440 H   0  0  0  0  0  0  0  0  0  0  0  0
   -0.7530   -3.0050   -0.5960 H   0  0  0  0  0  0  0  0  0  0  0  0
   -1.0150   -4.0520    0.8190 H   0  0  0  0  0  0  0  0  0  0  0  0
   -3.4070   -3.0120   -1.6280 H   0  0  0  0  0  0  0  0  0  0  0  0
   -5.6890   -3.7820   -2.1120 H   0  0  0  0  0  0  0  0  0  0  0  0
    6.4510   -2.2870   -1.3620 H   0  0  0  0  0  0  0  0  0  0  0  0
  1  2  1  0  0  0  0
  2  3  1  0  0  0  0
  2 36  2  0  0  0  0
  3  4  2  0  0  0  0
  3 37  1  0  0  0  0
  4  5  1  0  0  0  0
  4 15  1  0  0  0  0
  5  6  1  0  0  0  0
  5 35  2  0  0  0  0
  6  7  1  0  0  0  0
  6 32  1  0  0  0  0
  6 38  1  0  0  0  0
  7  8  1  0  0  0  0
  7 14  1  0  0  0  0
  7 16  1  0  0  0  0
  8  9  1  0  0  0  0
  9 10  2  0  0  0  0
  9 11  1  0  0  0  0
 11 12  1  0  0  0  0
 11 39  1  0  0  0  0
 11 40  1  0  0  0  0
 12 13  1  0  0  0  0
 13 41  1  0  0  0  0
 13 42  1  0  0  0  0
 13 43  1  0  0  0  0
 14 15  1  0  0  0  0
 14 44  1  0  0  0  0
 14 45  1  0  0  0  0
 15 46  1  0  0  0  0
 15 47  1  0  0  0  0
 16 17  1  0  0  0  0
 16 48  1  0  0  0  0
 16 49  1  0  0  0  0
 17 18  1  0  0  0  0
 17 50  1  0  0  0  0
 17 51  1  0  0  0  0
 18 19  1  0  0  0  0
 18 31  1  0  0  0  0
 19 20  1  0  0  0  0
 19 52  1  0  0  0  0
 19 53  1  0  0  0  0
 20 21  1  0  0  0  0
 20 54  1  0  0  0  0
 20 55  1  0  0  0  0
 21 22  1  0  0  0  0
 21 56  1  0  0  0  0
 21 57  1  0  0  0  0
 22 23  1  0  0  0  0
 22 26  2  0  0  0  0
 23 24  1  0  0  0  0
 23 74  1  0  0  0  0
 24 25  1  0  0  0  0
 24 30  2  0  0  0  0
 25 26  1  0  0  0  0
 25 27  2  0  0  0  0
 27 28  1  0  0  0  0
 27 58  1  0  0  0  0
 28 29  2  0  0  0  0
 28 59  1  0  0  0  0
 29 30  1  0  0  0  0
 29 60  1  0  0  0  0
 30 61  1  0  0  0  0
 31 62  1  0  0  0  0
 31 63  1  0  0  0  0
 31 64  1  0  0  0  0
 32 33  1  0  0  0  0
 32 34  1  0  0  0  0
 32 65  1  0  0  0  0
 33 66  1  0  0  0  0
 33 67  1  0  0  0  0
 33 68  1  0  0  0  0
 34 69  1  0  0  0  0
 34 70  1  0  0  0  0
 34 71  1  0  0  0  0
 35 36  1  0  0  0  0
 35 72  1  0  0  0  0
 36 73  1  0  0  0  0
M  END
>  <UNIQUE_SMILES>
Fc1cc2c(C(C(C)C)C(OC(=O)COC)(CCN(CCCc3[nH]c4c(n3)cccc4)C)CC2)cc1

>  <USER_SUPPLIED_SMILES>
Fc1cc2c(C(C(C)C)C(OC(=O)COC)(CCN(CCCc3[nH]c4c(n3)cccc4)C)CC2)cc1

$$$$
C19H22ClN5O
  MOE2018           3D

 48 51  0  0  0  0  0  0  0  0999 V2000
   -6.8400   -2.8440    0.1900 Cl  0  0  0  0  0  0  0  0  0  0  0  0
   -6.2060   -1.2680   -0.1710 C   0  0  0  0  0  0  0  0  0  0  0  0
   -5.0040   -0.8650    0.3790 C   0  0  0  0  0  0  0  0  0  0  0  0
   -4.4970    0.3950    0.0900 C   0  0  0  0  0  0  0  0  0  0  0  0
   -3.2830    0.8060    0.6440 N   0  0  0  0  0  0  0  0  0  0  0  0
   -3.0320    2.1650    0.1490 C   0  0  0  0  0  0  0  0  0  0  0  0
   -1.6540    2.6360    0.6180 C   0  0  0  0  0  0  0  0  0  0  0  0
   -0.6150    1.7740    0.0410 N   0  0  0  0  0  0  0  0  0  0  0  0
   -0.8660    0.4150    0.5360 C   0  0  0  0  0  0  0  0  0  0  0  0
   -2.2430   -0.0560    0.0670 C   0  0  0  0  0  0  0  0  0  0  0  0
    0.6620    2.2060    0.6240 C   0  0  0  0  0  0  0  0  0  0  0  0
    1.7540    1.1970    0.2630 C   0  0  0  0  0  0  0  0  0  0  0  0
    3.0850    1.6470    0.8700 C   0  0  0  0  0  0  0  0  0  0  0  0
    4.1310    0.6810    0.5240 N   0  0  0  0  0  0  0  0  0  0  0  0
    4.4910   -0.4510    1.2680 N   0  0  0  0  0  0  0  0  0  0  0  0
    5.4640   -1.0590    0.6310 C   0  0  0  0  0  0  0  0  0  0  0  0
    5.7480   -0.3450   -0.5180 N   0  0  0  0  0  0  0  0  0  0  0  0
    4.9180    0.7160   -0.5710 C   0  0  0  0  0  0  0  0  0  0  0  0
    4.8880    1.5610   -1.4490 O   0  0  0  0  0  0  0  0  0  0  0  0
    6.7380   -0.7760   -1.3680 C   0  0  0  0  0  0  0  0  0  0  0  0
    7.4390   -1.8910   -1.0960 C   0  0  0  0  0  0  0  0  0  0  0  0
    7.1710   -2.6400    0.0680 C   0  0  0  0  0  0  0  0  0  0  0  0
    6.2000   -2.2360    0.9230 C   0  0  0  0  0  0  0  0  0  0  0  0
   -5.2020    1.2470   -0.7530 C   0  0  0  0  0  0  0  0  0  0  0  0
   -6.4020    0.8380   -1.2990 C   0  0  0  0  0  0  0  0  0  0  0  0
   -6.9010   -0.4200   -1.0140 C   0  0  0  0  0  0  0  0  0  0  0  0
   -4.4590   -1.5290    1.0340 H   0  0  0  0  0  0  0  0  0  0  0  0
   -3.0640    2.1660   -0.9400 H   0  0  0  0  0  0  0  0  0  0  0  0
   -3.7960    2.8390    0.5360 H   0  0  0  0  0  0  0  0  0  0  0  0
   -1.4930    3.6650    0.2940 H   0  0  0  0  0  0  0  0  0  0  0  0
   -1.6050    2.5870    1.7060 H   0  0  0  0  0  0  0  0  0  0  0  0
   -0.1010   -0.2590    0.1500 H   0  0  0  0  0  0  0  0  0  0  0  0
   -0.8340    0.4130    1.6250 H   0  0  0  0  0  0  0  0  0  0  0  0
   -2.4040   -1.0850    0.3910 H   0  0  0  0  0  0  0  0  0  0  0  0
   -2.2930   -0.0070   -1.0200 H   0  0  0  0  0  0  0  0  0  0  0  0
    0.9290    3.1870    0.2290 H   0  0  0  0  0  0  0  0  0  0  0  0
    0.5660    2.2650    1.7080 H   0  0  0  0  0  0  0  0  0  0  0  0
    1.4880    0.2170    0.6580 H   0  0  0  0  0  0  0  0  0  0  0  0
    1.8510    1.1390   -0.8210 H   0  0  0  0  0  0  0  0  0  0  0  0
    3.3510    2.6270    0.4750 H   0  0  0  0  0  0  0  0  0  0  0  0
    2.9890    1.7060    1.9540 H   0  0  0  0  0  0  0  0  0  0  0  0
    6.9560   -0.2140   -2.2650 H   0  0  0  0  0  0  0  0  0  0  0  0
    8.2130   -2.2160   -1.7750 H   0  0  0  0  0  0  0  0  0  0  0  0
    7.7390   -3.5350    0.2790 H   0  0  0  0  0  0  0  0  0  0  0  0
    5.9890   -2.8030    1.8170 H   0  0  0  0  0  0  0  0  0  0  0  0
   -4.8100    2.2280   -0.9790 H   0  0  0  0  0  0  0  0  0  0  0  0
   -6.9500    1.5000   -1.9540 H   0  0  0  0  0  0  0  0  0  0  0  0
   -7.8400   -0.7360   -1.4430 H   0  0  0  0  0  0  0  0  0  0  0  0
  1  2  1  0  0  0  0
  2  3  1  0  0  0  0
  2 26  2  0  0  0  0
  3  4  2  0  0  0  0
  3 27  1  0  0  0  0
  4  5  1  0  0  0  0
  4 24  1  0  0  0  0
  5  6  1  0  0  0  0
  5 10  1  0  0  0  0
  6  7  1  0  0  0  0
  6 28  1  0  0  0  0
  6 29  1  0  0  0  0
  7  8  1  0  0  0  0
  7 30  1  0  0  0  0
  7 31  1  0  0  0  0
  8  9  1  0  0  0  0
  8 11  1  0  0  0  0
  9 10  1  0  0  0  0
  9 32  1  0  0  0  0
  9 33  1  0  0  0  0
 10 34  1  0  0  0  0
 10 35  1  0  0  0  0
 11 12  1  0  0  0  0
 11 36  1  0  0  0  0
 11 37  1  0  0  0  0
 12 13  1  0  0  0  0
 12 38  1  0  0  0  0
 12 39  1  0  0  0  0
 13 14  1  0  0  0  0
 13 40  1  0  0  0  0
 13 41  1  0  0  0  0
 14 15  1  0  0  0  0
 14 18  1  0  0  0  0
 15 16  2  0  0  0  0
 16 17  1  0  0  0  0
 16 23  1  0  0  0  0
 17 18  1  0  0  0  0
 17 20  1  0  0  0  0
 18 19  2  0  0  0  0
 20 21  2  0  0  0  0
 20 42  1  0  0  0  0
 21 22  1  0  0  0  0
 21 43  1  0  0  0  0
 22 23  2  0  0  0  0
 22 44  1  0  0  0  0
 23 45  1  0  0  0  0
 24 25  2  0  0  0  0
 24 46  1  0  0  0  0
 25 26  1  0  0  0  0
 25 47  1  0  0  0  0
 26 48  1  0  0  0  0
M  END
>  <UNIQUE_SMILES>
Clc1cc(N2CCN(CCCN3C(=O)N4C(=N3)C=CC=C4)CC2)ccc1

>  <USER_SUPPLIED_SMILES>
Clc1cc(N2CCN(CCCN3C(=O)N4C(=N3)C=CC=C4)CC2)ccc1

$$$$
C19H21N5O4
  MOE2018           3D

 49 52  0  0  0  0  0  0  0  0999 V2000
   -4.9140    1.8540   -1.4490 O   0  0  0  0  0  0  0  0  0  0  0  0
   -4.7040    1.0190   -0.5880 C   0  0  0  0  0  0  0  0  0  0  0  0
   -3.5420    1.0320    0.0950 N   0  0  0  0  0  0  0  0  0  0  0  0
   -3.2010   -0.0480    1.0330 C   0  0  0  0  0  0  0  0  0  0  0  0
   -1.7770   -0.5240    0.7260 C   0  0  0  0  0  0  0  0  0  0  0  0
   -0.8530    0.6140    0.7920 N   0  0  0  0  0  0  0  0  0  0  0  0
   -1.1900    1.5180   -0.3140 C   0  0  0  0  0  0  0  0  0  0  0  0
   -2.5720    2.1250   -0.0790 C   0  0  0  0  0  0  0  0  0  0  0  0
    0.4100    0.1160    0.5280 C   0  0  0  0  0  0  0  0  0  0  0  0
    1.4320    0.9510    0.5280 N   0  0  0  0  0  0  0  0  0  0  0  0
    2.6730    0.5060    0.2770 C   0  0  0  0  0  0  0  0  0  0  0  0
    2.8630   -0.8720    0.0120 C   0  0  0  0  0  0  0  0  0  0  0  0
    1.7290   -1.7200    0.0250 C   0  0  0  0  0  0  0  0  0  0  0  0
    0.5460   -1.1850    0.2900 N   0  0  0  0  0  0  0  0  0  0  0  0
    1.8540   -3.0710   -0.2260 N   0  0  0  0  0  0  0  0  0  0  0  0
    4.1480   -1.3610   -0.2540 C   0  0  0  0  0  0  0  0  0  0  0  0
    5.2110   -0.5040   -0.2560 C   0  0  0  0  0  0  0  0  0  0  0  0
    6.4590   -0.9800   -0.5150 O   0  0  0  0  0  0  0  0  0  0  0  0
    6.3260   -2.3850   -0.7390 C   0  0  0  0  0  0  0  0  0  0  0  0
    5.0310    0.8610    0.0050 C   0  0  0  0  0  0  0  0  0  0  0  0
    6.1040    1.6950   -0.0030 O   0  0  0  0  0  0  0  0  0  0  0  0
    5.6130    3.0040    0.2930 C   0  0  0  0  0  0  0  0  0  0  0  0
    3.7780    1.3670    0.2700 C   0  0  0  0  0  0  0  0  0  0  0  0
   -5.7180    0.0020   -0.2910 C   0  0  0  0  0  0  0  0  0  0  0  0
   -5.6730   -0.8900    0.7210 O   0  0  0  0  0  0  0  0  0  0  0  0
   -6.7680   -1.6600    0.6830 C   0  0  0  0  0  0  0  0  0  0  0  0
   -7.5370   -1.2730   -0.3590 C   0  0  0  0  0  0  0  0  0  0  0  0
   -6.8750   -0.2050   -0.9850 C   0  0  0  0  0  0  0  0  0  0  0  0
   -3.2500    0.3240    2.0560 H   0  0  0  0  0  0  0  0  0  0  0  0
   -3.8990   -0.8760    0.9100 H   0  0  0  0  0  0  0  0  0  0  0  0
   -1.4800   -1.2760    1.4560 H   0  0  0  0  0  0  0  0  0  0  0  0
   -1.7480   -0.9580   -0.2740 H   0  0  0  0  0  0  0  0  0  0  0  0
   -0.4470    2.3140   -0.3710 H   0  0  0  0  0  0  0  0  0  0  0  0
   -1.1960    0.9590   -1.2500 H   0  0  0  0  0  0  0  0  0  0  0  0
   -2.8550    2.7370   -0.9360 H   0  0  0  0  0  0  0  0  0  0  0  0
   -2.5550    2.7400    0.8210 H   0  0  0  0  0  0  0  0  0  0  0  0
    2.7270   -3.4500   -0.4150 H   0  0  0  0  0  0  0  0  0  0  0  0
    1.0700   -3.6410   -0.2140 H   0  0  0  0  0  0  0  0  0  0  0  0
    4.2980   -2.4110   -0.4560 H   0  0  0  0  0  0  0  0  0  0  0  0
    7.3060   -2.8130   -0.9520 H   0  0  0  0  0  0  0  0  0  0  0  0
    5.9090   -2.8570    0.1500 H   0  0  0  0  0  0  0  0  0  0  0  0
    5.6630   -2.5570   -1.5870 H   0  0  0  0  0  0  0  0  0  0  0  0
    6.4420    3.7110    0.2970 H   0  0  0  0  0  0  0  0  0  0  0  0
    4.8880    3.2990   -0.4650 H   0  0  0  0  0  0  0  0  0  0  0  0
    5.1340    2.9990    1.2720 H   0  0  0  0  0  0  0  0  0  0  0  0
    3.6470    2.4200    0.4700 H   0  0  0  0  0  0  0  0  0  0  0  0
   -6.9990   -2.4600    1.3720 H   0  0  0  0  0  0  0  0  0  0  0  0
   -8.4840   -1.7010   -0.6520 H   0  0  0  0  0  0  0  0  0  0  0  0
   -7.2130    0.3420   -1.8530 H   0  0  0  0  0  0  0  0  0  0  0  0
  1  2  2  0  0  0  0
  2  3  1  0  0  0  0
  2 24  1  0  0  0  0
  3  4  1  0  0  0  0
  3  8  1  0  0  0  0
  4  5  1  0  0  0  0
  4 29  1  0  0  0  0
  4 30  1  0  0  0  0
  5  6  1  0  0  0  0
  5 31  1  0  0  0  0
  5 32  1  0  0  0  0
  6  7  1  0  0  0  0
  6  9  1  0  0  0  0
  7  8  1  0  0  0  0
  7 33  1  0  0  0  0
  7 34  1  0  0  0  0
  8 35  1  0  0  0  0
  8 36  1  0  0  0  0
  9 10  1  0  0  0  0
  9 14  2  0  0  0  0
 10 11  2  0  0  0  0
 11 12  1  0  0  0  0
 11 23  1  0  0  0  0
 12 13  2  0  0  0  0
 12 16  1  0  0  0  0
 13 14  1  0  0  0  0
 13 15  1  0  0  0  0
 15 37  1  0  0  0  0
 15 38  1  0  0  0  0
 16 17  2  0  0  0  0
 16 39  1  0  0  0  0
 17 18  1  0  0  0  0
 17 20  1  0  0  0  0
 18 19  1  0  0  0  0
 19 40  1  0  0  0  0
 19 41  1  0  0  0  0
 19 42  1  0  0  0  0
 20 21  1  0  0  0  0
 20 23  2  0  0  0  0
 21 22  1  0  0  0  0
 22 43  1  0  0  0  0
 22 44  1  0  0  0  0
 22 45  1  0  0  0  0
 23 46  1  0  0  0  0
 24 25  1  0  0  0  0
 24 28  2  0  0  0  0
 25 26  1  0  0  0  0
 26 27  2  0  0  0  0
 26 47  1  0  0  0  0
 27 28  1  0  0  0  0
 27 48  1  0  0  0  0
 28 49  1  0  0  0  0
M  END
>  <UNIQUE_SMILES>
O=C(N1CCN(c2nc(N)c3c(n2)cc(OC)c(OC)c3)CC1)c1occc1

>  <USER_SUPPLIED_SMILES>
O=C(N1CCN(c2nc(N)c3c(n2)cc(OC)c(OC)c3)CC1)c1occc1

$$$$
C18H20N2O6
  MOE2018           3D

 46 47  0  0  1  0  0  0  0  0999 V2000
   -2.4470   -1.2520   -2.0280 C   0  0  0  0  0  0  0  0  0  0  0  0
   -2.6490   -1.0550   -0.6740 C   0  0  0  0  0  0  0  0  0  0  0  0
   -1.6140   -0.5980    0.1190 C   0  0  0  0  0  0  0  0  0  0  0  0
   -0.3770   -0.3370   -0.4410 C   0  0  0  0  0  0  0  0  0  0  0  0
   -0.1750   -0.5340   -1.7940 C   0  0  0  0  0  0  0  0  0  0  0  0
   -1.2110   -0.9900   -2.5880 C   0  0  0  0  0  0  0  0  0  0  0  0
    0.7520    0.1630    0.4240 C   0  0  3  0  0  0  0  0  0  0  0  0
    1.8920   -0.8120    0.3620 C   0  0  0  0  0  0  0  0  0  0  0  0
    2.9960   -0.5550   -0.3620 C   0  0  0  0  0  0  0  0  0  0  0  0
    3.1180    0.6150   -1.0610 N   0  0  0  0  0  0  0  0  0  0  0  0
    2.3150    1.6820   -0.7660 C   0  0  0  0  0  0  0  0  0  0  0  0
    1.1830    1.5180   -0.0600 C   0  0  0  0  0  0  0  0  0  0  0  0
    0.3810    2.6460    0.2330 C   0  0  0  0  0  0  0  0  0  0  0  0
   -0.7580    2.4980    0.9410 O   0  0  0  0  0  0  0  0  0  0  0  0
   -1.3360    3.7980    1.0710 C   0  0  0  0  0  0  0  0  0  0  0  0
   -2.6380    3.7000    1.8690 C   0  0  0  0  0  0  0  0  0  0  0  0
    0.7180    3.7490   -0.1530 O   0  0  0  0  0  0  0  0  0  0  0  0
    2.7040    3.0590   -1.2400 C   0  0  0  0  0  0  0  0  0  0  0  0
    4.1120   -1.5660   -0.4020 C   0  0  0  0  0  0  0  0  0  0  0  0
    1.8040   -2.0270    1.0800 C   0  0  0  0  0  0  0  0  0  0  0  0
    1.5790   -3.1840    0.4220 O   0  0  0  0  0  0  0  0  0  0  0  0
    1.5420   -4.2190    1.4080 C   0  0  0  0  0  0  0  0  0  0  0  0
    1.9300   -2.0300    2.2900 O   0  0  0  0  0  0  0  0  0  0  0  0
   -3.9730   -1.3350   -0.0740 N   0  3  0  0  0  0  0  0  0  0  0  0
   -4.8850   -1.7380   -0.7740 O   0  5  0  0  0  0  0  0  0  0  0  0
   -4.1500   -1.1620    1.1180 O   0  0  0  0  0  0  0  0  0  0  0  0
   -3.2550   -1.6140   -2.6470 H   0  0  0  0  0  0  0  0  0  0  0  0
   -1.7710   -0.4440    1.1770 H   0  0  0  0  0  0  0  0  0  0  0  0
    0.7910   -0.3290   -2.2310 H   0  0  0  0  0  0  0  0  0  0  0  0
   -1.0540   -1.1440   -3.6450 H   0  0  0  0  0  0  0  0  0  0  0  0
    0.4050    0.2450    1.4540 H   0  0  0  0  0  0  0  0  0  0  0  0
    3.7770    0.6870   -1.7690 H   0  0  0  0  0  0  0  0  0  0  0  0
   -0.6390    4.4550    1.5920 H   0  0  0  0  0  0  0  0  0  0  0  0
   -1.5450    4.2030    0.0810 H   0  0  0  0  0  0  0  0  0  0  0  0
   -3.0780    4.6920    1.9680 H   0  0  0  0  0  0  0  0  0  0  0  0
   -3.3340    3.0440    1.3480 H   0  0  0  0  0  0  0  0  0  0  0  0
   -2.4280    3.2950    2.8590 H   0  0  0  0  0  0  0  0  0  0  0  0
    3.6420    3.0020   -1.7910 H   0  0  0  0  0  0  0  0  0  0  0  0
    1.9240    3.4540   -1.8900 H   0  0  0  0  0  0  0  0  0  0  0  0
    2.8280    3.7180   -0.3800 H   0  0  0  0  0  0  0  0  0  0  0  0
    3.9240   -2.2840   -1.2000 H   0  0  0  0  0  0  0  0  0  0  0  0
    5.0580   -1.0570   -0.5870 H   0  0  0  0  0  0  0  0  0  0  0  0
    4.1630   -2.0900    0.5530 H   0  0  0  0  0  0  0  0  0  0  0  0
    1.3620   -5.1770    0.9220 H   0  0  0  0  0  0  0  0  0  0  0  0
    2.4960   -4.2520    1.9350 H   0  0  0  0  0  0  0  0  0  0  0  0
    0.7420   -4.0150    2.1190 H   0  0  0  0  0  0  0  0  0  0  0  0
  1  2  1  0  0  0  0
  1  6  2  0  0  0  0
  1 27  1  0  0  0  0
  2  3  2  0  0  0  0
  2 24  1  0  0  0  0
  3  4  1  0  0  0  0
  3 28  1  0  0  0  0
  4  5  2  0  0  0  0
  4  7  1  0  0  0  0
  5  6  1  0  0  0  0
  5 29  1  0  0  0  0
  6 30  1  0  0  0  0
  7  8  1  0  0  0  0
  7 12  1  0  0  0  0
  7 31  1  0  0  0  0
  8  9  2  0  0  0  0
  8 20  1  0  0  0  0
  9 10  1  0  0  0  0
  9 19  1  0  0  0  0
 10 11  1  0  0  0  0
 10 32  1  0  0  0  0
 11 12  2  0  0  0  0
 11 18  1  0  0  0  0
 12 13  1  0  0  0  0
 13 14  1  0  0  0  0
 13 17  2  0  0  0  0
 14 15  1  0  0  0  0
 15 16  1  0  0  0  0
 15 33  1  0  0  0  0
 15 34  1  0  0  0  0
 16 35  1  0  0  0  0
 16 36  1  0  0  0  0
 16 37  1  0  0  0  0
 18 38  1  0  0  0  0
 18 39  1  0  0  0  0
 18 40  1  0  0  0  0
 19 41  1  0  0  0  0
 19 42  1  0  0  0  0
 19 43  1  0  0  0  0
 20 21  1  0  0  0  0
 20 23  2  0  0  0  0
 21 22  1  0  0  0  0
 22 44  1  0  0  0  0
 22 45  1  0  0  0  0
 22 46  1  0  0  0  0
 24 25  1  0  0  0  0
 24 26  2  0  0  0  0
M  CHG  1  24   1
M  CHG  1  25  -1
M  END
>  <UNIQUE_SMILES>
O=[N+]([O-])c1cc(C2C(C(=O)OCC)=C(C)NC(C)=C2C(=O)OC)ccc1

>  <USER_SUPPLIED_SMILES>
O=[N+]([O-])c1cc(C2C(C(=O)OCC)=C(C)NC(C)=C2C(=O)OC)ccc1

$$$$
C8H10N4O2
  MOE2018           3D

 24 25  0  0  0  0  0  0  0  0999 V2000
   -2.9940    0.3840   -0.0020 O   0  0  0  0  0  0  0  0  0  0  0  0
   -1.7900    0.2080   -0.0020 C   0  0  0  0  0  0  0  0  0  0  0  0
   -0.9710    1.2770   -0.0010 N   0  0  0  0  0  0  0  0  0  0  0  0
   -1.5340    2.6290    0.0000 C   0  0  0  0  0  0  0  0  0  0  0  0
    0.4030    1.0990    0.0000 C   0  0  0  0  0  0  0  0  0  0  0  0
    1.4450    1.9340    0.0010 N   0  0  0  0  0  0  0  0  0  0  0  0
    2.5610    1.2510    0.0010 C   0  0  0  0  0  0  0  0  0  0  0  0
    2.2860   -0.0680    0.0000 N   0  0  0  0  0  0  0  0  0  0  0  0
    3.2610   -1.1610    0.0000 C   0  0  0  0  0  0  0  0  0  0  0  0
    0.9110   -0.1940    0.0000 C   0  0  0  0  0  0  0  0  0  0  0  0
    0.0160   -1.2850   -0.0020 C   0  0  0  0  0  0  0  0  0  0  0  0
    0.4380   -2.4280   -0.0020 O   0  0  0  0  0  0  0  0  0  0  0  0
   -1.3120   -1.0480    0.0030 N   0  0  0  0  0  0  0  0  0  0  0  0
   -2.2470   -2.1760    0.0030 C   0  0  0  0  0  0  0  0  0  0  0  0
   -2.6220    2.5700    0.0000 H   0  0  0  0  0  0  0  0  0  0  0  0
   -1.1990    3.1620    0.8900 H   0  0  0  0  0  0  0  0  0  0  0  0
   -1.1980    3.1630   -0.8900 H   0  0  0  0  0  0  0  0  0  0  0  0
    3.5520    1.6800    0.0010 H   0  0  0  0  0  0  0  0  0  0  0  0
    3.5030   -1.4330    1.0270 H   0  0  0  0  0  0  0  0  0  0  0  0
    2.8390   -2.0250   -0.5140 H   0  0  0  0  0  0  0  0  0  0  0  0
    4.1670   -0.8400   -0.5140 H   0  0  0  0  0  0  0  0  0  0  0  0
   -2.4750   -2.4590    1.0300 H   0  0  0  0  0  0  0  0  0  0  0  0
   -3.1650   -1.8870   -0.5070 H   0  0  0  0  0  0  0  0  0  0  0  0
   -1.7950   -3.0220   -0.5150 H   0  0  0  0  0  0  0  0  0  0  0  0
  1  2  2  0  0  0  0
  2  3  1  0  0  0  0
  2 13  1  0  0  0  0
  3  4  1  0  0  0  0
  3  5  1  0  0  0  0
  4 15  1  0  0  0  0
  4 16  1  0  0  0  0
  4 17  1  0  0  0  0
  5  6  1  0  0  0  0
  5 10  2  0  0  0  0
  6  7  2  0  0  0  0
  7  8  1  0  0  0  0
  7 18  1  0  0  0  0
  8  9  1  0  0  0  0
  8 10  1  0  0  0  0
  9 19  1  0  0  0  0
  9 20  1  0  0  0  0
  9 21  1  0  0  0  0
 10 11  1  0  0  0  0
 11 12  2  0  0  0  0
 11 13  1  0  0  0  0
 13 14  1  0  0  0  0
 14 22  1  0  0  0  0
 14 23  1  0  0  0  0
 14 24  1  0  0  0  0
M  END
>  <UNIQUE_SMILES>
O=C1N(C)C(=O)c2n(C)cnc2N1C

>  <USER_SUPPLIED_SMILES>
O=C1N(C)C(=O)c2n(C)cnc2N1C

$$$$
C23H27FN4O2
  MOE2018           3D

 57 61  0  0  0  0  0  0  0  0999 V2000
    4.1280   -0.5920    0.1540 C   0  0  0  0  0  0  0  0  0  0  0  0
    4.5180   -1.7040    0.6980 N   0  0  0  0  0  0  0  0  0  0  0  0
    5.9220   -1.6880    0.8610 O   0  0  0  0  0  0  0  0  0  0  0  0
    6.4120   -0.5210    0.3980 C   0  0  0  0  0  0  0  0  0  0  0  0
    5.3200    0.2290   -0.0690 C   0  0  0  0  0  0  0  0  0  0  0  0
    5.5290    1.5000   -0.6120 C   0  0  0  0  0  0  0  0  0  0  0  0
    6.7950    2.0070   -0.6860 C   0  0  0  0  0  0  0  0  0  0  0  0
    7.8790    1.2680   -0.2260 C   0  0  0  0  0  0  0  0  0  0  0  0
    7.6930    0.0120    0.3140 C   0  0  0  0  0  0  0  0  0  0  0  0
    9.1240    1.7850   -0.3080 F   0  0  0  0  0  0  0  0  0  0  0  0
    2.7090   -0.2180   -0.1900 C   0  0  0  0  0  0  0  0  0  0  0  0
    2.1390   -1.2320   -1.1870 C   0  0  0  0  0  0  0  0  0  0  0  0
    0.6650   -0.9110   -1.4440 C   0  0  0  0  0  0  0  0  0  0  0  0
   -0.0910   -1.0210   -0.1920 N   0  0  0  0  0  0  0  0  0  0  0  0
    0.3930    0.0340    0.7050 C   0  0  0  0  0  0  0  0  0  0  0  0
    1.8520   -0.2340    1.0790 C   0  0  0  0  0  0  0  0  0  0  0  0
   -1.4870   -0.6940   -0.5120 C   0  0  0  0  0  0  0  0  0  0  0  0
   -2.3770   -1.0280    0.6870 C   0  0  0  0  0  0  0  0  0  0  0  0
   -3.8090   -0.6930    0.3580 C   0  0  0  0  0  0  0  0  0  0  0  0
   -4.6590   -1.6450   -0.1180 C   0  0  0  0  0  0  0  0  0  0  0  0
   -5.9160   -1.3200   -0.4060 N   0  0  0  0  0  0  0  0  0  0  0  0
   -6.3860   -0.1000   -0.2470 C   0  0  0  0  0  0  0  0  0  0  0  0
   -5.6040    0.8760    0.2380 N   0  0  0  0  0  0  0  0  0  0  0  0
   -4.3060    0.6100    0.5390 C   0  0  0  0  0  0  0  0  0  0  0  0
   -3.5760    1.4960    0.9520 O   0  0  0  0  0  0  0  0  0  0  0  0
   -6.0730    2.2400    0.4870 C   0  0  0  0  0  0  0  0  0  0  0  0
   -7.3470    2.5360   -0.3000 C   0  0  0  0  0  0  0  0  0  0  0  0
   -8.3560    1.4160   -0.0190 C   0  0  0  0  0  0  0  0  0  0  0  0
   -7.8230    0.1290   -0.6460 C   0  0  0  0  0  0  0  0  0  0  0  0
   -4.1780   -3.0600   -0.3160 C   0  0  0  0  0  0  0  0  0  0  0  0
    4.6910    2.0790   -0.9720 H   0  0  0  0  0  0  0  0  0  0  0  0
    6.9550    2.9890   -1.1060 H   0  0  0  0  0  0  0  0  0  0  0  0
    8.5400   -0.5560    0.6690 H   0  0  0  0  0  0  0  0  0  0  0  0
    2.6920    0.7780   -0.6320 H   0  0  0  0  0  0  0  0  0  0  0  0
    2.6930   -1.1720   -2.1240 H   0  0  0  0  0  0  0  0  0  0  0  0
    2.2270   -2.2370   -0.7750 H   0  0  0  0  0  0  0  0  0  0  0  0
    0.5770    0.1030   -1.8330 H   0  0  0  0  0  0  0  0  0  0  0  0
    0.2630   -1.6140   -2.1730 H   0  0  0  0  0  0  0  0  0  0  0  0
    0.3200    0.9990    0.2020 H   0  0  0  0  0  0  0  0  0  0  0  0
   -0.2160    0.0500    1.6080 H   0  0  0  0  0  0  0  0  0  0  0  0
    1.9310   -1.2090    1.5600 H   0  0  0  0  0  0  0  0  0  0  0  0
    2.2000    0.5390    1.7640 H   0  0  0  0  0  0  0  0  0  0  0  0
   -1.5690    0.3680   -0.7410 H   0  0  0  0  0  0  0  0  0  0  0  0
   -1.8080   -1.2770   -1.3760 H   0  0  0  0  0  0  0  0  0  0  0  0
   -2.2960   -2.0900    0.9150 H   0  0  0  0  0  0  0  0  0  0  0  0
   -2.0570   -0.4450    1.5500 H   0  0  0  0  0  0  0  0  0  0  0  0
   -6.2750    2.3600    1.5520 H   0  0  0  0  0  0  0  0  0  0  0  0
   -5.2970    2.9450    0.1900 H   0  0  0  0  0  0  0  0  0  0  0  0
   -7.7620    3.4930    0.0180 H   0  0  0  0  0  0  0  0  0  0  0  0
   -7.1210    2.5680   -1.3660 H   0  0  0  0  0  0  0  0  0  0  0  0
   -8.4680    1.2820    1.0570 H   0  0  0  0  0  0  0  0  0  0  0  0
   -9.3200    1.6690   -0.4610 H   0  0  0  0  0  0  0  0  0  0  0  0
   -7.8860    0.2060   -1.7320 H   0  0  0  0  0  0  0  0  0  0  0  0
   -8.4280   -0.7120   -0.3100 H   0  0  0  0  0  0  0  0  0  0  0  0
   -4.3420   -3.6310    0.5980 H   0  0  0  0  0  0  0  0  0  0  0  0
   -4.7290   -3.5200   -1.1360 H   0  0  0  0  0  0  0  0  0  0  0  0
   -3.1140   -3.0510   -0.5540 H   0  0  0  0  0  0  0  0  0  0  0  0
  1  2  2  0  0  0  0
  1  5  1  0  0  0  0
  1 11  1  0  0  0  0
  2  3  1  0  0  0  0
  3  4  1  0  0  0  0
  4  5  1  0  0  0  0
  4  9  2  0  0  0  0
  5  6  2  0  0  0  0
  6  7  1  0  0  0  0
  6 31  1  0  0  0  0
  7  8  2  0  0  0  0
  7 32  1  0  0  0  0
  8  9  1  0  0  0  0
  8 10  1  0  0  0  0
  9 33  1  0  0  0  0
 11 12  1  0  0  0  0
 11 16  1  0  0  0  0
 11 34  1  0  0  0  0
 12 13  1  0  0  0  0
 12 35  1  0  0  0  0
 12 36  1  0  0  0  0
 13 14  1  0  0  0  0
 13 37  1  0  0  0  0
 13 38  1  0  0  0  0
 14 15  1  0  0  0  0
 14 17  1  0  0  0  0
 15 16  1  0  0  0  0
 15 39  1  0  0  0  0
 15 40  1  0  0  0  0
 16 41  1  0  0  0  0
 16 42  1  0  0  0  0
 17 18  1  0  0  0  0
 17 43  1  0  0  0  0
 17 44  1  0  0  0  0
 18 19  1  0  0  0  0
 18 45  1  0  0  0  0
 18 46  1  0  0  0  0
 19 20  2  0  0  0  0
 19 24  1  0  0  0  0
 20 21  1  0  0  0  0
 20 30  1  0  0  0  0
 21 22  2  0  0  0  0
 22 23  1  0  0  0  0
 22 29  1  0  0  0  0
 23 24  1  0  0  0  0
 23 26  1  0  0  0  0
 24 25  2  0  0  0  0
 26 27  1  0  0  0  0
 26 47  1  0  0  0  0
 26 48  1  0  0  0  0
 27 28  1  0  0  0  0
 27 49  1  0  0  0  0
 27 50  1  0  0  0  0
 28 29  1  0  0  0  0
 28 51  1  0  0  0  0
 28 52  1  0  0  0  0
 29 53  1  0  0  0  0
 29 54  1  0  0  0  0
 30 55  1  0  0  0  0
 30 56  1  0  0  0  0
 30 57  1  0  0  0  0
M  END
>  <UNIQUE_SMILES>
Fc1cc2onc(C3CCN(CCC=4C(=O)N5C(=NC=4C)CCCC5)CC3)c2cc1

>  <USER_SUPPLIED_SMILES>
Fc1cc2onc(C3CCN(CCC=4C(=O)N5C(=NC=4C)CCCC5)CC3)c2cc1

$$$$
C21H21ClN4OS
  MOE2018           3D

 49 53  0  0  0  0  0  0  0  0999 V2000
   -3.5350   -2.8650   -0.9540 Cl  0  0  0  0  0  0  0  0  0  0  0  0
   -4.1590   -1.2890   -0.5780 C   0  0  0  0  0  0  0  0  0  0  0  0
   -3.3050   -0.2010   -0.5400 C   0  0  0  0  0  0  0  0  0  0  0  0
   -1.8360   -0.3830   -0.8240 C   0  0  0  0  0  0  0  0  0  0  0  0
   -1.1380   -0.9250    0.4250 C   0  0  0  0  0  0  0  0  0  0  0  0
    0.2930   -1.1030    0.1480 N   0  0  0  0  0  0  0  0  0  0  0  0
    0.9400   -1.3860    1.4350 C   0  0  0  0  0  0  0  0  0  0  0  0
    2.4550   -1.4630    1.2440 C   0  0  0  0  0  0  0  0  0  0  0  0
    2.9620   -0.1620    0.7900 N   0  0  0  0  0  0  0  0  0  0  0  0
    2.3150    0.1220   -0.4970 C   0  0  0  0  0  0  0  0  0  0  0  0
    0.8000    0.1980   -0.3060 C   0  0  0  0  0  0  0  0  0  0  0  0
    4.3220   -0.3310    0.5270 C   0  0  0  0  0  0  0  0  0  0  0  0
    4.8820   -1.4930    0.7030 N   0  0  0  0  0  0  0  0  0  0  0  0
    6.5200   -1.2690    0.2750 S   0  0  0  0  0  0  0  0  0  0  0  0
    6.4730    0.4480   -0.1620 C   0  0  0  0  0  0  0  0  0  0  0  0
    5.1180    0.7900    0.0490 C   0  0  0  0  0  0  0  0  0  0  0  0
    4.7480    2.1260   -0.2170 C   0  0  0  0  0  0  0  0  0  0  0  0
    5.6730    3.0210   -0.6560 C   0  0  0  0  0  0  0  0  0  0  0  0
    6.9990    2.6570   -0.8550 C   0  0  0  0  0  0  0  0  0  0  0  0
    7.3960    1.3690   -0.6110 C   0  0  0  0  0  0  0  0  0  0  0  0
   -3.8030    1.0550   -0.2420 C   0  0  0  0  0  0  0  0  0  0  0  0
   -5.1450    1.2180    0.0170 C   0  0  0  0  0  0  0  0  0  0  0  0
   -6.0140    0.1340   -0.0180 C   0  0  0  0  0  0  0  0  0  0  0  0
   -7.3140    0.5480    0.2750 N   0  0  0  0  0  0  0  0  0  0  0  0
   -7.3860    1.8690    0.5110 C   0  0  0  0  0  0  0  0  0  0  0  0
   -8.3860    2.4970    0.7900 O   0  0  0  0  0  0  0  0  0  0  0  0
   -5.9860    2.4250    0.3650 C   0  0  0  0  0  0  0  0  0  0  0  0
   -5.5070   -1.1270   -0.3250 C   0  0  0  0  0  0  0  0  0  0  0  0
   -1.7100   -1.0890   -1.6460 H   0  0  0  0  0  0  0  0  0  0  0  0
   -1.3970    0.5760   -1.0980 H   0  0  0  0  0  0  0  0  0  0  0  0
   -1.2650   -0.2200    1.2460 H   0  0  0  0  0  0  0  0  0  0  0  0
   -1.5770   -1.8840    0.6990 H   0  0  0  0  0  0  0  0  0  0  0  0
    0.7030   -0.5920    2.1430 H   0  0  0  0  0  0  0  0  0  0  0  0
    0.5750   -2.3370    1.8230 H   0  0  0  0  0  0  0  0  0  0  0  0
    2.9270   -1.7260    2.1900 H   0  0  0  0  0  0  0  0  0  0  0  0
    2.6880   -2.2230    0.4990 H   0  0  0  0  0  0  0  0  0  0  0  0
    2.6800    1.0720   -0.8850 H   0  0  0  0  0  0  0  0  0  0  0  0
    2.5520   -0.6730   -1.2050 H   0  0  0  0  0  0  0  0  0  0  0  0
    0.3280    0.4610   -1.2520 H   0  0  0  0  0  0  0  0  0  0  0  0
    0.5660    0.9590    0.4390 H   0  0  0  0  0  0  0  0  0  0  0  0
    3.7240    2.4390   -0.0720 H   0  0  0  0  0  0  0  0  0  0  0  0
    5.3700    4.0390   -0.8540 H   0  0  0  0  0  0  0  0  0  0  0  0
    7.7140    3.3870   -1.2040 H   0  0  0  0  0  0  0  0  0  0  0  0
    8.4250    1.0790   -0.7640 H   0  0  0  0  0  0  0  0  0  0  0  0
   -3.1390    1.9060   -0.2110 H   0  0  0  0  0  0  0  0  0  0  0  0
   -8.0770   -0.0490    0.3040 H   0  0  0  0  0  0  0  0  0  0  0  0
   -5.6500    2.8660    1.3040 H   0  0  0  0  0  0  0  0  0  0  0  0
   -5.9490    3.1610   -0.4380 H   0  0  0  0  0  0  0  0  0  0  0  0
   -6.1680   -1.9810   -0.3570 H   0  0  0  0  0  0  0  0  0  0  0  0
  1  2  1  0  0  0  0
  2  3  1  0  0  0  0
  2 28  2  0  0  0  0
  3  4  1  0  0  0  0
  3 21  2  0  0  0  0
  4  5  1  0  0  0  0
  4 29  1  0  0  0  0
  4 30  1  0  0  0  0
  5  6  1  0  0  0  0
  5 31  1  0  0  0  0
  5 32  1  0  0  0  0
  6  7  1  0  0  0  0
  6 11  1  0  0  0  0
  7  8  1  0  0  0  0
  7 33  1  0  0  0  0
  7 34  1  0  0  0  0
  8  9  1  0  0  0  0
  8 35  1  0  0  0  0
  8 36  1  0  0  0  0
  9 10  1  0  0  0  0
  9 12  1  0  0  0  0
 10 11  1  0  0  0  0
 10 37  1  0  0  0  0
 10 38  1  0  0  0  0
 11 39  1  0  0  0  0
 11 40  1  0  0  0  0
 12 13  2  0  0  0  0
 12 16  1  0  0  0  0
 13 14  1  0  0  0  0
 14 15  1  0  0  0  0
 15 16  1  0  0  0  0
 15 20  2  0  0  0  0
 16 17  2  0  0  0  0
 17 18  1  0  0  0  0
 17 41  1  0  0  0  0
 18 19  2  0  0  0  0
 18 42  1  0  0  0  0
 19 20  1  0  0  0  0
 19 43  1  0  0  0  0
 20 44  1  0  0  0  0
 21 22  1  0  0  0  0
 21 45  1  0  0  0  0
 22 23  2  0  0  0  0
 22 27  1  0  0  0  0
 23 24  1  0  0  0  0
 23 28  1  0  0  0  0
 24 25  1  0  0  0  0
 24 46  1  0  0  0  0
 25 26  2  0  0  0  0
 25 27  1  0  0  0  0
 27 47  1  0  0  0  0
 27 48  1  0  0  0  0
 28 49  1  0  0  0  0
M  END
>  <UNIQUE_SMILES>
Clc1c(CCN2CCN(c3nsc4c3cccc4)CC2)cc2c(NC(=O)C2)c1

>  <USER_SUPPLIED_SMILES>
Clc1c(CCN2CCN(c3nsc4c3cccc4)CC2)cc2c(NC(=O)C2)c1

$$$$
C21H26N2OS2
  MOE2018           3D

 52 55  0  0  1  0  0  0  0  0999 V2000
   -3.6010    1.6620    0.4730 S   0  0  0  0  0  0  0  0  0  0  0  0
   -2.9160    0.0610    0.2370 C   0  0  0  0  0  0  0  0  0  0  0  0
   -1.5420   -0.1440    0.1880 C   0  0  0  0  0  0  0  0  0  0  0  0
   -0.6400    0.9100    0.3230 N   0  0  0  0  0  0  0  0  0  0  0  0
    0.6960    0.6260    0.8540 C   0  0  0  0  0  0  0  0  0  0  0  0
    1.6420    0.2860   -0.2990 C   0  0  0  0  0  0  0  0  0  0  0  0
    3.0560    0.0790    0.2450 C   0  0  3  0  0  0  0  0  0  0  0  0
    3.9370   -0.3670   -0.8400 N   0  0  0  0  0  0  0  0  0  0  0  0
    5.2390   -0.6830   -0.2440 C   0  0  0  0  0  0  0  0  0  0  0  0
    5.8790    0.5920    0.3090 C   0  0  0  0  0  0  0  0  0  0  0  0
    4.9780    1.1750    1.4020 C   0  0  0  0  0  0  0  0  0  0  0  0
    3.5760    1.3970    0.8250 C   0  0  0  0  0  0  0  0  0  0  0  0
    3.3820   -1.6320   -1.3390 C   0  0  0  0  0  0  0  0  0  0  0  0
   -0.9520    2.2240   -0.0260 C   0  0  0  0  0  0  0  0  0  0  0  0
   -2.2600    2.6940   -0.0010 C   0  0  0  0  0  0  0  0  0  0  0  0
   -2.5210    4.0130   -0.3580 C   0  0  0  0  0  0  0  0  0  0  0  0
   -1.4900    4.8520   -0.7380 C   0  0  0  0  0  0  0  0  0  0  0  0
   -0.1910    4.3830   -0.7640 C   0  0  0  0  0  0  0  0  0  0  0  0
    0.0790    3.0740   -0.4100 C   0  0  0  0  0  0  0  0  0  0  0  0
   -1.0430   -1.4280    0.0000 C   0  0  0  0  0  0  0  0  0  0  0  0
   -1.9060   -2.4990   -0.1400 C   0  0  0  0  0  0  0  0  0  0  0  0
   -1.2640   -4.1220   -0.3810 S   0  0  0  0  0  0  0  0  0  0  0  0
    0.0270   -3.8050   -0.8840 O   0  0  0  0  0  0  0  0  0  0  0  0
   -1.1230   -4.6640    1.3440 C   0  0  0  0  0  0  0  0  0  0  0  0
   -3.2720   -2.2960   -0.0910 C   0  0  0  0  0  0  0  0  0  0  0  0
   -3.7760   -1.0240    0.0970 C   0  0  0  0  0  0  0  0  0  0  0  0
    1.0700    1.5010    1.3850 H   0  0  0  0  0  0  0  0  0  0  0  0
    0.6410   -0.2190    1.5400 H   0  0  0  0  0  0  0  0  0  0  0  0
    1.3040   -0.6270   -0.7890 H   0  0  0  0  0  0  0  0  0  0  0  0
    1.6460    1.1040   -1.0190 H   0  0  0  0  0  0  0  0  0  0  0  0
    3.0360   -0.6770    1.0300 H   0  0  0  0  0  0  0  0  0  0  0  0
    5.1020   -1.4000    0.5660 H   0  0  0  0  0  0  0  0  0  0  0  0
    5.8900   -1.1160   -1.0030 H   0  0  0  0  0  0  0  0  0  0  0  0
    6.8560    0.3560    0.7300 H   0  0  0  0  0  0  0  0  0  0  0  0
    5.9940    1.3200   -0.4950 H   0  0  0  0  0  0  0  0  0  0  0  0
    4.9220    0.4790    2.2390 H   0  0  0  0  0  0  0  0  0  0  0  0
    5.3860    2.1260    1.7430 H   0  0  0  0  0  0  0  0  0  0  0  0
    3.6210    2.1480    0.0360 H   0  0  0  0  0  0  0  0  0  0  0  0
    2.9060    1.7360    1.6150 H   0  0  0  0  0  0  0  0  0  0  0  0
    2.4260   -1.4430   -1.8260 H   0  0  0  0  0  0  0  0  0  0  0  0
    4.0740   -2.0740   -2.0570 H   0  0  0  0  0  0  0  0  0  0  0  0
    3.2370   -2.3190   -0.5060 H   0  0  0  0  0  0  0  0  0  0  0  0
   -3.5350    4.3840   -0.3390 H   0  0  0  0  0  0  0  0  0  0  0  0
   -1.7010    5.8740   -1.0150 H   0  0  0  0  0  0  0  0  0  0  0  0
    0.6140    5.0390   -1.0610 H   0  0  0  0  0  0  0  0  0  0  0  0
    1.0960    2.7110   -0.4310 H   0  0  0  0  0  0  0  0  0  0  0  0
    0.0240   -1.5890   -0.0380 H   0  0  0  0  0  0  0  0  0  0  0  0
   -2.1070   -4.6420    1.8140 H   0  0  0  0  0  0  0  0  0  0  0  0
   -0.7290   -5.6800    1.3750 H   0  0  0  0  0  0  0  0  0  0  0  0
   -0.4500   -3.9960    1.8810 H   0  0  0  0  0  0  0  0  0  0  0  0
   -3.9450   -3.1330   -0.2000 H   0  0  0  0  0  0  0  0  0  0  0  0
   -4.8440   -0.8700    0.1350 H   0  0  0  0  0  0  0  0  0  0  0  0
  1  2  1  0  0  0  0
  1 15  1  0  0  0  0
  2  3  1  0  0  0  0
  2 26  2  0  0  0  0
  3  4  1  0  0  0  0
  3 20  2  0  0  0  0
  4  5  1  0  0  0  0
  4 14  1  0  0  0  0
  5  6  1  0  0  0  0
  5 27  1  0  0  0  0
  5 28  1  0  0  0  0
  6  7  1  0  0  0  0
  6 29  1  0  0  0  0
  6 30  1  0  0  0  0
  7  8  1  0  0  0  0
  7 12  1  0  0  0  0
  7 31  1  0  0  0  0
  8  9  1  0  0  0  0
  8 13  1  0  0  0  0
  9 10  1  0  0  0  0
  9 32  1  0  0  0  0
  9 33  1  0  0  0  0
 10 11  1  0  0  0  0
 10 34  1  0  0  0  0
 10 35  1  0  0  0  0
 11 12  1  0  0  0  0
 11 36  1  0  0  0  0
 11 37  1  0  0  0  0
 12 38  1  0  0  0  0
 12 39  1  0  0  0  0
 13 40  1  0  0  0  0
 13 41  1  0  0  0  0
 13 42  1  0  0  0  0
 14 15  1  0  0  0  0
 14 19  2  0  0  0  0
 15 16  2  0  0  0  0
 16 17  1  0  0  0  0
 16 43  1  0  0  0  0
 17 18  2  0  0  0  0
 17 44  1  0  0  0  0
 18 19  1  0  0  0  0
 18 45  1  0  0  0  0
 19 46  1  0  0  0  0
 20 21  1  0  0  0  0
 20 47  1  0  0  0  0
 21 22  1  0  0  0  0
 21 25  2  0  0  0  0
 22 23  2  0  0  0  0
 22 24  1  0  0  0  0
 24 48  1  0  0  0  0
 24 49  1  0  0  0  0
 24 50  1  0  0  0  0
 25 26  1  0  0  0  0
 25 51  1  0  0  0  0
 26 52  1  0  0  0  0
M  END
>  <UNIQUE_SMILES>
[SH0](=O)(C)c1cc2N(CCC3N(C)CCCC3)c3c(Sc2cc1)cccc3

>  <USER_SUPPLIED_SMILES>
[SH0](=O)(C)c1cc2N(CCC3N(C)CCCC3)c3c(Sc2cc1)cccc3

$$$$
C32H41NO2
  MOE2018           3D

 76 79  0  0  1  0  0  0  0  0999 V2000
    4.8220   -0.0790    1.9440 O   0  0  0  0  0  0  0  0  0  0  0  0
    4.8630   -0.0530    0.5160 C   0  0  0  0  0  0  0  0  0  0  0  0
    5.3700    1.2880    0.0520 C   0  0  0  0  0  0  0  0  0  0  0  0
    6.2560    2.0010    0.8380 C   0  0  0  0  0  0  0  0  0  0  0  0
    6.7220    3.2310    0.4120 C   0  0  0  0  0  0  0  0  0  0  0  0
    6.3020    3.7480   -0.7990 C   0  0  0  0  0  0  0  0  0  0  0  0
    5.4160    3.0350   -1.5850 C   0  0  0  0  0  0  0  0  0  0  0  0
    4.9540    1.8030   -1.1620 C   0  0  0  0  0  0  0  0  0  0  0  0
    5.7840   -1.1380    0.0200 C   0  0  0  0  0  0  0  0  0  0  0  0
    6.8600   -1.5370    0.7910 C   0  0  0  0  0  0  0  0  0  0  0  0
    7.7040   -2.5320    0.3350 C   0  0  0  0  0  0  0  0  0  0  0  0
    7.4730   -3.1280   -0.8900 C   0  0  0  0  0  0  0  0  0  0  0  0
    6.3970   -2.7290   -1.6610 C   0  0  0  0  0  0  0  0  0  0  0  0
    5.5500   -1.7370   -1.2040 C   0  0  0  0  0  0  0  0  0  0  0  0
    3.4560   -0.2850   -0.0380 C   0  0  0  0  0  0  0  0  0  0  0  0
    2.9380   -1.6480    0.4320 C   0  0  0  0  0  0  0  0  0  0  0  0
    1.4900   -1.8230   -0.0310 C   0  0  0  0  0  0  0  0  0  0  0  0
    0.6490   -0.7790    0.5650 N   0  0  0  0  0  0  0  0  0  0  0  0
   -0.7160   -1.0060    0.0730 C   0  0  0  0  0  0  0  0  0  0  0  0
   -1.6330    0.1090    0.5820 C   0  0  0  0  0  0  0  0  0  0  0  0
   -3.0780   -0.1990    0.1860 C   0  0  0  0  0  0  0  0  0  0  0  0
   -3.9950    0.9160    0.6950 C   0  0  3  0  0  0  0  0  0  0  0  0
   -3.6730    2.1390    0.0300 O   0  0  0  0  0  0  0  0  0  0  0  0
   -5.4300    0.5540    0.4120 C   0  0  0  0  0  0  0  0  0  0  0  0
   -6.2220    0.0290    1.4170 C   0  0  0  0  0  0  0  0  0  0  0  0
   -7.5380   -0.3030    1.1580 C   0  0  0  0  0  0  0  0  0  0  0  0
   -8.0640   -0.1100   -0.1050 C   0  0  0  0  0  0  0  0  0  0  0  0
   -9.4990   -0.4730   -0.3880 C   0  0  0  0  0  0  0  0  0  0  0  0
  -10.4200    0.3420    0.5230 C   0  0  0  0  0  0  0  0  0  0  0  0
   -9.8250   -0.1630   -1.8500 C   0  0  0  0  0  0  0  0  0  0  0  0
   -9.7100   -1.9650   -0.1230 C   0  0  0  0  0  0  0  0  0  0  0  0
   -7.2730    0.4150   -1.1100 C   0  0  0  0  0  0  0  0  0  0  0  0
   -5.9580    0.7510   -0.8500 C   0  0  0  0  0  0  0  0  0  0  0  0
    1.0890    0.5050    0.0110 C   0  0  0  0  0  0  0  0  0  0  0  0
    2.5150    0.8090    0.4760 C   0  0  0  0  0  0  0  0  0  0  0  0
    4.2240    0.6290    2.2200 H   0  0  0  0  0  0  0  0  0  0  0  0
    6.5850    1.5980    1.7840 H   0  0  0  0  0  0  0  0  0  0  0  0
    7.4140    3.7890    1.0260 H   0  0  0  0  0  0  0  0  0  0  0  0
    6.6650    4.7100   -1.1310 H   0  0  0  0  0  0  0  0  0  0  0  0
    5.0880    3.4390   -2.5310 H   0  0  0  0  0  0  0  0  0  0  0  0
    4.2620    1.2450   -1.7760 H   0  0  0  0  0  0  0  0  0  0  0  0
    7.0400   -1.0720    1.7480 H   0  0  0  0  0  0  0  0  0  0  0  0
    8.5450   -2.8440    0.9370 H   0  0  0  0  0  0  0  0  0  0  0  0
    8.1340   -3.9050   -1.2460 H   0  0  0  0  0  0  0  0  0  0  0  0
    6.2160   -3.1940   -2.6180 H   0  0  0  0  0  0  0  0  0  0  0  0
    4.7090   -1.4250   -1.8050 H   0  0  0  0  0  0  0  0  0  0  0  0
    3.4840   -0.2620   -1.1280 H   0  0  0  0  0  0  0  0  0  0  0  0
    3.5550   -2.4390    0.0050 H   0  0  0  0  0  0  0  0  0  0  0  0
    2.9810   -1.6980    1.5200 H   0  0  0  0  0  0  0  0  0  0  0  0
    1.4450   -1.7480   -1.1170 H   0  0  0  0  0  0  0  0  0  0  0  0
    1.1260   -2.8020    0.2790 H   0  0  0  0  0  0  0  0  0  0  0  0
   -0.7150   -1.0050   -1.0170 H   0  0  0  0  0  0  0  0  0  0  0  0
   -1.0780   -1.9680    0.4360 H   0  0  0  0  0  0  0  0  0  0  0  0
   -1.5600    0.1720    1.6680 H   0  0  0  0  0  0  0  0  0  0  0  0
   -1.3300    1.0580    0.1420 H   0  0  0  0  0  0  0  0  0  0  0  0
   -3.1520   -0.2620   -0.9000 H   0  0  0  0  0  0  0  0  0  0  0  0
   -3.3820   -1.1480    0.6260 H   0  0  0  0  0  0  0  0  0  0  0  0
   -3.8560    1.0380    1.7690 H   0  0  0  0  0  0  0  0  0  0  0  0
   -3.8090    1.9870   -0.9160 H   0  0  0  0  0  0  0  0  0  0  0  0
   -5.8110   -0.1210    2.4050 H   0  0  0  0  0  0  0  0  0  0  0  0
   -8.1560   -0.7130    1.9440 H   0  0  0  0  0  0  0  0  0  0  0  0
  -10.2700    1.4050    0.3350 H   0  0  0  0  0  0  0  0  0  0  0  0
  -11.4580    0.0790    0.3190 H   0  0  0  0  0  0  0  0  0  0  0  0
  -10.1870    0.1210    1.5650 H   0  0  0  0  0  0  0  0  0  0  0  0
   -9.1690   -0.7430   -2.5000 H   0  0  0  0  0  0  0  0  0  0  0  0
  -10.8630   -0.4250   -2.0550 H   0  0  0  0  0  0  0  0  0  0  0  0
   -9.6750    0.9000   -2.0390 H   0  0  0  0  0  0  0  0  0  0  0  0
   -9.4780   -2.1860    0.9180 H   0  0  0  0  0  0  0  0  0  0  0  0
  -10.7480   -2.2270   -0.3280 H   0  0  0  0  0  0  0  0  0  0  0  0
   -9.0540   -2.5450   -0.7730 H   0  0  0  0  0  0  0  0  0  0  0  0
   -7.6840    0.5660   -2.0980 H   0  0  0  0  0  0  0  0  0  0  0  0
   -5.3400    1.1620   -1.6350 H   0  0  0  0  0  0  0  0  0  0  0  0
    1.0660    0.4580   -1.0780 H   0  0  0  0  0  0  0  0  0  0  0  0
    0.4210    1.2960    0.3530 H   0  0  0  0  0  0  0  0  0  0  0  0
    2.5450    0.8330    1.5650 H   0  0  0  0  0  0  0  0  0  0  0  0
    2.8290    1.7750    0.0810 H   0  0  0  0  0  0  0  0  0  0  0  0
  1  2  1  0  0  0  0
  1 36  1  0  0  0  0
  2  3  1  0  0  0  0
  2  9  1  0  0  0  0
  2 15  1  0  0  0  0
  3  4  1  0  0  0  0
  3  8  2  0  0  0  0
  4  5  2  0  0  0  0
  4 37  1  0  0  0  0
  5  6  1  0  0  0  0
  5 38  1  0  0  0  0
  6  7  2  0  0  0  0
  6 39  1  0  0  0  0
  7  8  1  0  0  0  0
  7 40  1  0  0  0  0
  8 41  1  0  0  0  0
  9 10  1  0  0  0  0
  9 14  2  0  0  0  0
 10 11  2  0  0  0  0
 10 42  1  0  0  0  0
 11 12  1  0  0  0  0
 11 43  1  0  0  0  0
 12 13  2  0  0  0  0
 12 44  1  0  0  0  0
 13 14  1  0  0  0  0
 13 45  1  0  0  0  0
 14 46  1  0  0  0  0
 15 16  1  0  0  0  0
 15 35  1  0  0  0  0
 15 47  1  0  0  0  0
 16 17  1  0  0  0  0
 16 48  1  0  0  0  0
 16 49  1  0  0  0  0
 17 18  1  0  0  0  0
 17 50  1  0  0  0  0
 17 51  1  0  0  0  0
 18 19  1  0  0  0  0
 18 34  1  0  0  0  0
 19 20  1  0  0  0  0
 19 52  1  0  0  0  0
 19 53  1  0  0  0  0
 20 21  1  0  0  0  0
 20 54  1  0  0  0  0
 20 55  1  0  0  0  0
 21 22  1  0  0  0  0
 21 56  1  0  0  0  0
 21 57  1  0  0  0  0
 22 23  1  0  0  0  0
 22 24  1  0  0  0  0
 22 58  1  0  0  0  0
 23 59  1  0  0  0  0
 24 25  1  0  0  0  0
 24 33  2  0  0  0  0
 25 26  2  0  0  0  0
 25 60  1  0  0  0  0
 26 27  1  0  0  0  0
 26 61  1  0  0  0  0
 27 28  1  0  0  0  0
 27 32  2  0  0  0  0
 28 29  1  0  0  0  0
 28 30  1  0  0  0  0
 28 31  1  0  0  0  0
 29 62  1  0  0  0  0
 29 63  1  0  0  0  0
 29 64  1  0  0  0  0
 30 65  1  0  0  0  0
 30 66  1  0  0  0  0
 30 67  1  0  0  0  0
 31 68  1  0  0  0  0
 31 69  1  0  0  0  0
 31 70  1  0  0  0  0
 32 33  1  0  0  0  0
 32 71  1  0  0  0  0
 33 72  1  0  0  0  0
 34 35  1  0  0  0  0
 34 73  1  0  0  0  0
 34 74  1  0  0  0  0
 35 75  1  0  0  0  0
 35 76  1  0  0  0  0
M  END
>  <UNIQUE_SMILES>
OC(c1ccccc1)(c1ccccc1)C1CCN(CCCC(O)c2ccc(C(C)(C)C)cc2)CC1

>  <USER_SUPPLIED_SMILES>
OC(c1ccccc1)(c1ccccc1)C1CCN(CCCC(O)c2ccc(C(C)(C)C)cc2)CC1

$$$$
C27H38N2O4
  MOE2018           3D

 71 72  0  0  1  0  0  0  0  0999 V2000
   -3.2340   -1.1180    0.3980 C   0  0  3  0  0  0  0  0  0  0  0  0
   -3.3460   -1.4360    1.8310 C   0  0  0  0  0  0  0  0  0  0  0  0
   -3.4330   -1.6820    2.9370 N   0  0  0  0  0  0  0  0  0  0  0  0
   -1.9510   -0.3220    0.1520 C   0  0  0  0  0  0  0  0  0  0  0  0
   -0.7500   -1.1150    0.6730 C   0  0  0  0  0  0  0  0  0  0  0  0
    0.5400   -0.3590    0.3490 C   0  0  0  0  0  0  0  0  0  0  0  0
    1.6920   -1.1200    0.8500 N   0  0  0  0  0  0  0  0  0  0  0  0
    2.8940   -0.4760    0.3020 C   0  0  0  0  0  0  0  0  0  0  0  0
    4.1140   -1.3570    0.5750 C   0  0  0  0  0  0  0  0  0  0  0  0
    5.3460   -0.6960    0.0130 C   0  0  0  0  0  0  0  0  0  0  0  0
    6.0840    0.1700    0.7990 C   0  0  0  0  0  0  0  0  0  0  0  0
    7.2170    0.7780    0.2840 C   0  0  0  0  0  0  0  0  0  0  0  0
    7.9440    1.6300    1.0560 O   0  0  0  0  0  0  0  0  0  0  0  0
    7.2950    1.6910    2.3270 C   0  0  0  0  0  0  0  0  0  0  0  0
    7.6100    0.5160   -1.0250 C   0  0  0  0  0  0  0  0  0  0  0  0
    6.8670   -0.3530   -1.8080 C   0  0  0  0  0  0  0  0  0  0  0  0
    5.7400   -0.9610   -1.2850 C   0  0  0  0  0  0  0  0  0  0  0  0
    8.7220    1.1110   -1.5360 O   0  0  0  0  0  0  0  0  0  0  0  0
    8.8580    0.6460   -2.8800 C   0  0  0  0  0  0  0  0  0  0  0  0
    1.7320   -0.9190    2.3040 C   0  0  0  0  0  0  0  0  0  0  0  0
   -3.1910   -2.4160   -0.4100 C   0  0  0  0  0  0  0  0  0  0  0  0
   -4.4450   -3.2430   -0.1150 C   0  0  0  0  0  0  0  0  0  0  0  0
   -3.1390   -2.0860   -1.9030 C   0  0  0  0  0  0  0  0  0  0  0  0
   -4.4240   -0.2990   -0.0290 C   0  0  0  0  0  0  0  0  0  0  0  0
   -5.3320   -0.8200   -0.9320 C   0  0  0  0  0  0  0  0  0  0  0  0
   -6.4250   -0.0720   -1.3270 C   0  0  0  0  0  0  0  0  0  0  0  0
   -6.6120    1.2030   -0.8190 C   0  0  0  0  0  0  0  0  0  0  0  0
   -5.6980    1.7280    0.0890 C   0  0  0  0  0  0  0  0  0  0  0  0
   -4.6080    0.9710    0.4860 C   0  0  0  0  0  0  0  0  0  0  0  0
   -5.8780    2.9800    0.5910 O   0  0  0  0  0  0  0  0  0  0  0  0
   -4.7890    3.2270    1.4830 C   0  0  0  0  0  0  0  0  0  0  0  0
   -7.6870    1.9400   -1.2070 O   0  0  0  0  0  0  0  0  0  0  0  0
   -8.4260    1.1390   -2.1320 C   0  0  0  0  0  0  0  0  0  0  0  0
   -1.8330   -0.1450   -0.9170 H   0  0  0  0  0  0  0  0  0  0  0  0
   -2.0100    0.6330    0.6750 H   0  0  0  0  0  0  0  0  0  0  0  0
   -0.8380   -1.2390    1.7520 H   0  0  0  0  0  0  0  0  0  0  0  0
   -0.7270   -2.0940    0.1960 H   0  0  0  0  0  0  0  0  0  0  0  0
    0.6270   -0.2340   -0.7300 H   0  0  0  0  0  0  0  0  0  0  0  0
    0.5160    0.6210    0.8270 H   0  0  0  0  0  0  0  0  0  0  0  0
    2.7760   -0.3410   -0.7740 H   0  0  0  0  0  0  0  0  0  0  0  0
    3.0330    0.4960    0.7760 H   0  0  0  0  0  0  0  0  0  0  0  0
    4.2320   -1.4910    1.6500 H   0  0  0  0  0  0  0  0  0  0  0  0
    3.9740   -2.3280    0.1000 H   0  0  0  0  0  0  0  0  0  0  0  0
    5.7770    0.3730    1.8140 H   0  0  0  0  0  0  0  0  0  0  0  0
    7.8450    2.3650    2.9840 H   0  0  0  0  0  0  0  0  0  0  0  0
    6.2770    2.0580    2.1990 H   0  0  0  0  0  0  0  0  0  0  0  0
    7.2690    0.6950    2.7700 H   0  0  0  0  0  0  0  0  0  0  0  0
    7.1700   -0.5590   -2.8240 H   0  0  0  0  0  0  0  0  0  0  0  0
    5.1620   -1.6390   -1.8960 H   0  0  0  0  0  0  0  0  0  0  0  0
    9.7410    1.0990   -3.3330 H   0  0  0  0  0  0  0  0  0  0  0  0
    8.9650   -0.4380   -2.8810 H   0  0  0  0  0  0  0  0  0  0  0  0
    7.9730    0.9240   -3.4520 H   0  0  0  0  0  0  0  0  0  0  0  0
    2.5750   -1.4670    2.7240 H   0  0  0  0  0  0  0  0  0  0  0  0
    1.8450    0.1430    2.5210 H   0  0  0  0  0  0  0  0  0  0  0  0
    0.8050   -1.2840    2.7470 H   0  0  0  0  0  0  0  0  0  0  0  0
   -2.3060   -2.9880   -0.1330 H   0  0  0  0  0  0  0  0  0  0  0  0
   -5.2930   -2.5750    0.0370 H   0  0  0  0  0  0  0  0  0  0  0  0
   -4.6500   -3.9050   -0.9550 H   0  0  0  0  0  0  0  0  0  0  0  0
   -4.2840   -3.8360    0.7850 H   0  0  0  0  0  0  0  0  0  0  0  0
   -3.7740   -1.2240   -2.1070 H   0  0  0  0  0  0  0  0  0  0  0  0
   -2.1120   -1.8560   -2.1890 H   0  0  0  0  0  0  0  0  0  0  0  0
   -3.4930   -2.9420   -2.4780 H   0  0  0  0  0  0  0  0  0  0  0  0
   -5.1870   -1.8140   -1.3290 H   0  0  0  0  0  0  0  0  0  0  0  0
   -7.1330   -0.4820   -2.0330 H   0  0  0  0  0  0  0  0  0  0  0  0
   -3.8970    1.3760    1.1910 H   0  0  0  0  0  0  0  0  0  0  0  0
   -4.8900    4.2240    1.9120 H   0  0  0  0  0  0  0  0  0  0  0  0
   -4.7980    2.4850    2.2820 H   0  0  0  0  0  0  0  0  0  0  0  0
   -3.8490    3.1600    0.9360 H   0  0  0  0  0  0  0  0  0  0  0  0
   -9.3020    1.6910   -2.4720 H   0  0  0  0  0  0  0  0  0  0  0  0
   -7.7950    0.8950   -2.9860 H   0  0  0  0  0  0  0  0  0  0  0  0
   -8.7440    0.2190   -1.6410 H   0  0  0  0  0  0  0  0  0  0  0  0
  1  2  1  0  0  0  0
  1  4  1  0  0  0  0
  1 21  1  0  0  0  0
  1 24  1  0  0  0  0
  2  3  3  0  0  0  0
  4  5  1  0  0  0  0
  4 34  1  0  0  0  0
  4 35  1  0  0  0  0
  5  6  1  0  0  0  0
  5 36  1  0  0  0  0
  5 37  1  0  0  0  0
  6  7  1  0  0  0  0
  6 38  1  0  0  0  0
  6 39  1  0  0  0  0
  7  8  1  0  0  0  0
  7 20  1  0  0  0  0
  8  9  1  0  0  0  0
  8 40  1  0  0  0  0
  8 41  1  0  0  0  0
  9 10  1  0  0  0  0
  9 42  1  0  0  0  0
  9 43  1  0  0  0  0
 10 11  1  0  0  0  0
 10 17  2  0  0  0  0
 11 12  2  0  0  0  0
 11 44  1  0  0  0  0
 12 13  1  0  0  0  0
 12 15  1  0  0  0  0
 13 14  1  0  0  0  0
 14 45  1  0  0  0  0
 14 46  1  0  0  0  0
 14 47  1  0  0  0  0
 15 16  2  0  0  0  0
 15 18  1  0  0  0  0
 16 17  1  0  0  0  0
 16 48  1  0  0  0  0
 17 49  1  0  0  0  0
 18 19  1  0  0  0  0
 19 50  1  0  0  0  0
 19 51  1  0  0  0  0
 19 52  1  0  0  0  0
 20 53  1  0  0  0  0
 20 54  1  0  0  0  0
 20 55  1  0  0  0  0
 21 22  1  0  0  0  0
 21 23  1  0  0  0  0
 21 56  1  0  0  0  0
 22 57  1  0  0  0  0
 22 58  1  0  0  0  0
 22 59  1  0  0  0  0
 23 60  1  0  0  0  0
 23 61  1  0  0  0  0
 23 62  1  0  0  0  0
 24 25  1  0  0  0  0
 24 29  2  0  0  0  0
 25 26  2  0  0  0  0
 25 63  1  0  0  0  0
 26 27  1  0  0  0  0
 26 64  1  0  0  0  0
 27 28  2  0  0  0  0
 27 32  1  0  0  0  0
 28 29  1  0  0  0  0
 28 30  1  0  0  0  0
 29 65  1  0  0  0  0
 30 31  1  0  0  0  0
 31 66  1  0  0  0  0
 31 67  1  0  0  0  0
 31 68  1  0  0  0  0
 32 33  1  0  0  0  0
 33 69  1  0  0  0  0
 33 70  1  0  0  0  0
 33 71  1  0  0  0  0
M  END
>  <UNIQUE_SMILES>
O(C)c1c(OC)ccc(C(C#N)(C(C)C)CCCN(CCc2cc(OC)c(OC)cc2)C)c1

>  <USER_SUPPLIED_SMILES>
O(C)c1c(OC)ccc(C(C#N)(C(C)C)CCCN(CCc2cc(OC)c(OC)cc2)C)c1

$$$$
C26H30Cl2F3NO
  MOE2018           3D

 63 65  0  0  1  0  0  0  0  0999 V2000
   -1.9320   -4.3920    1.1040 Cl  0  0  0  0  0  0  0  0  0  0  0  0
   -2.7680   -2.9740    0.5520 C   0  0  0  0  0  0  0  0  0  0  0  0
   -2.1300   -1.7250    0.5820 C   0  0  0  0  0  0  0  0  0  0  0  0
   -0.8040   -1.5990    1.0580 C   0  0  0  0  0  0  0  0  0  0  0  0
   -0.1800   -0.4040    1.0910 C   0  0  0  0  0  0  0  0  0  0  0  0
    1.2340   -0.3260    1.6070 C   0  0  3  0  0  0  0  0  0  0  0  0
    1.4780   -1.4170    2.4970 O   0  0  0  0  0  0  0  0  0  0  0  0
    2.2110   -0.3990    0.4320 C   0  0  0  0  0  0  0  0  0  0  0  0
    3.6390   -0.1940    0.9420 C   0  0  0  0  0  0  0  0  0  0  0  0
    4.5770   -0.2640   -0.1860 N   0  0  0  0  0  0  0  0  0  0  0  0
    5.8830    0.1760    0.3220 C   0  0  0  0  0  0  0  0  0  0  0  0
    5.8820    1.6980    0.4780 C   0  0  0  0  0  0  0  0  0  0  0  0
    7.2800    2.1700    0.8840 C   0  0  0  0  0  0  0  0  0  0  0  0
    7.2790    3.6920    1.0390 C   0  0  0  0  0  0  0  0  0  0  0  0
    4.7160   -1.6850   -0.5320 C   0  0  0  0  0  0  0  0  0  0  0  0
    5.3540   -1.8130   -1.9160 C   0  0  0  0  0  0  0  0  0  0  0  0
    5.5630   -3.2920   -2.2470 C   0  0  0  0  0  0  0  0  0  0  0  0
    6.2010   -3.4200   -3.6320 C   0  0  0  0  0  0  0  0  0  0  0  0
   -0.8220    0.7760    0.6510 C   0  0  0  0  0  0  0  0  0  0  0  0
   -2.1470    0.7160    0.1650 C   0  0  0  0  0  0  0  0  0  0  0  0
   -2.8260   -0.5820    0.1290 C   0  0  0  0  0  0  0  0  0  0  0  0
   -4.1360   -0.7090   -0.3390 C   0  0  0  0  0  0  0  0  0  0  0  0
   -4.7360   -1.9480   -0.3550 C   0  0  0  0  0  0  0  0  0  0  0  0
   -6.3630   -2.1090   -0.9370 Cl  0  0  0  0  0  0  0  0  0  0  0  0
   -4.0460   -3.0740    0.0830 C   0  0  0  0  0  0  0  0  0  0  0  0
   -2.7790    1.8840   -0.2680 C   0  0  0  0  0  0  0  0  0  0  0  0
   -2.1110    3.0740   -0.2170 C   0  0  0  0  0  0  0  0  0  0  0  0
   -0.8070    3.1360    0.2610 C   0  0  0  0  0  0  0  0  0  0  0  0
   -0.1630    2.0130    0.6900 C   0  0  0  0  0  0  0  0  0  0  0  0
   -2.7940    4.3330   -0.6850 C   0  0  0  0  0  0  0  0  0  0  0  0
   -3.4630    4.9270    0.3910 F   0  0  0  0  0  0  0  0  0  0  0  0
   -1.8390    5.2220   -1.1890 F   0  0  0  0  0  0  0  0  0  0  0  0
   -3.7150    4.0180   -1.6900 F   0  0  0  0  0  0  0  0  0  0  0  0
   -0.2810   -2.4790    1.4020 H   0  0  0  0  0  0  0  0  0  0  0  0
    1.3750    0.6150    2.1390 H   0  0  0  0  0  0  0  0  0  0  0  0
    1.3420   -2.2280    1.9890 H   0  0  0  0  0  0  0  0  0  0  0  0
    2.1320   -1.3750   -0.0460 H   0  0  0  0  0  0  0  0  0  0  0  0
    1.9690    0.3800   -0.2910 H   0  0  0  0  0  0  0  0  0  0  0  0
    3.7180    0.7820    1.4200 H   0  0  0  0  0  0  0  0  0  0  0  0
    3.8820   -0.9730    1.6650 H   0  0  0  0  0  0  0  0  0  0  0  0
    6.0710   -0.2880    1.2900 H   0  0  0  0  0  0  0  0  0  0  0  0
    6.6640   -0.1170   -0.3790 H   0  0  0  0  0  0  0  0  0  0  0  0
    5.6030    2.1600   -0.4690 H   0  0  0  0  0  0  0  0  0  0  0  0
    5.1650    1.9840    1.2470 H   0  0  0  0  0  0  0  0  0  0  0  0
    7.5590    1.7080    1.8300 H   0  0  0  0  0  0  0  0  0  0  0  0
    7.9970    1.8840    0.1140 H   0  0  0  0  0  0  0  0  0  0  0  0
    8.2750    4.0280    1.3280 H   0  0  0  0  0  0  0  0  0  0  0  0
    7.0000    4.1540    0.0920 H   0  0  0  0  0  0  0  0  0  0  0  0
    6.5620    3.9780    1.8090 H   0  0  0  0  0  0  0  0  0  0  0  0
    5.3480   -2.1780    0.2070 H   0  0  0  0  0  0  0  0  0  0  0  0
    3.7330   -2.1550   -0.5400 H   0  0  0  0  0  0  0  0  0  0  0  0
    4.6980   -1.3640   -2.6620 H   0  0  0  0  0  0  0  0  0  0  0  0
    6.3160   -1.3000   -1.9220 H   0  0  0  0  0  0  0  0  0  0  0  0
    6.2190   -3.7420   -1.5020 H   0  0  0  0  0  0  0  0  0  0  0  0
    4.6010   -3.8050   -2.2410 H   0  0  0  0  0  0  0  0  0  0  0  0
    6.3500   -4.4740   -3.8670 H   0  0  0  0  0  0  0  0  0  0  0  0
    5.5450   -2.9710   -4.3770 H   0  0  0  0  0  0  0  0  0  0  0  0
    7.1630   -2.9080   -3.6380 H   0  0  0  0  0  0  0  0  0  0  0  0
   -4.6740    0.1600   -0.6870 H   0  0  0  0  0  0  0  0  0  0  0  0
   -4.5330   -4.0380    0.0640 H   0  0  0  0  0  0  0  0  0  0  0  0
   -3.7920    1.8460   -0.6410 H   0  0  0  0  0  0  0  0  0  0  0  0
   -0.2960    4.0880    0.2920 H   0  0  0  0  0  0  0  0  0  0  0  0
    0.8500    2.0760    1.0590 H   0  0  0  0  0  0  0  0  0  0  0  0
  1  2  1  0  0  0  0
  2  3  1  0  0  0  0
  2 25  2  0  0  0  0
  3  4  1  0  0  0  0
  3 21  2  0  0  0  0
  4  5  2  0  0  0  0
  4 34  1  0  0  0  0
  5  6  1  0  0  0  0
  5 19  1  0  0  0  0
  6  7  1  0  0  0  0
  6  8  1  0  0  0  0
  6 35  1  0  0  0  0
  7 36  1  0  0  0  0
  8  9  1  0  0  0  0
  8 37  1  0  0  0  0
  8 38  1  0  0  0  0
  9 10  1  0  0  0  0
  9 39  1  0  0  0  0
  9 40  1  0  0  0  0
 10 11  1  0  0  0  0
 10 15  1  0  0  0  0
 11 12  1  0  0  0  0
 11 41  1  0  0  0  0
 11 42  1  0  0  0  0
 12 13  1  0  0  0  0
 12 43  1  0  0  0  0
 12 44  1  0  0  0  0
 13 14  1  0  0  0  0
 13 45  1  0  0  0  0
 13 46  1  0  0  0  0
 14 47  1  0  0  0  0
 14 48  1  0  0  0  0
 14 49  1  0  0  0  0
 15 16  1  0  0  0  0
 15 50  1  0  0  0  0
 15 51  1  0  0  0  0
 16 17  1  0  0  0  0
 16 52  1  0  0  0  0
 16 53  1  0  0  0  0
 17 18  1  0  0  0  0
 17 54  1  0  0  0  0
 17 55  1  0  0  0  0
 18 56  1  0  0  0  0
 18 57  1  0  0  0  0
 18 58  1  0  0  0  0
 19 20  1  0  0  0  0
 19 29  2  0  0  0  0
 20 21  1  0  0  0  0
 20 26  2  0  0  0  0
 21 22  1  0  0  0  0
 22 23  2  0  0  0  0
 22 59  1  0  0  0  0
 23 24  1  0  0  0  0
 23 25  1  0  0  0  0
 25 60  1  0  0  0  0
 26 27  1  0  0  0  0
 26 61  1  0  0  0  0
 27 28  2  0  0  0  0
 27 30  1  0  0  0  0
 28 29  1  0  0  0  0
 28 62  1  0  0  0  0
 29 63  1  0  0  0  0
 30 31  1  0  0  0  0
 30 32  1  0  0  0  0
 30 33  1  0  0  0  0
M  END
>  <UNIQUE_SMILES>
Clc1c2c(c3c(c(C(O)CCN(CCCC)CCCC)c2)ccc(C(F)(F)F)c3)cc(Cl)c1

>  <USER_SUPPLIED_SMILES>
Clc1c2c(c3c(c(C(O)CCN(CCCC)CCCC)c2)ccc(C(F)(F)F)c3)cc(Cl)c1

$$$$
C23H28ClN5O3
  MOE2018           3D

 60 63  0  0  0  0  0  0  0  0999 V2000
    8.2300   -0.7670    0.9010 C   0  0  0  0  0  0  0  0  0  0  0  0
    6.9330   -0.4810    0.5310 C   0  0  0  0  0  0  0  0  0  0  0  0
    6.6350    0.7450   -0.0680 C   0  0  0  0  0  0  0  0  0  0  0  0
    7.6540    1.6740   -0.2900 C   0  0  0  0  0  0  0  0  0  0  0  0
    8.9480    1.3750    0.0850 C   0  0  0  0  0  0  0  0  0  0  0  0
    9.2360    0.1580    0.6790 C   0  0  0  0  0  0  0  0  0  0  0  0
   10.8670   -0.2100    1.1470 Cl  0  0  0  0  0  0  0  0  0  0  0  0
    5.2480    1.0570   -0.4670 C   0  0  0  0  0  0  0  0  0  0  0  0
    4.8300    2.2130   -1.0580 C   0  0  0  0  0  0  0  0  0  0  0  0
    3.4490    2.0920   -1.2640 C   0  0  0  0  0  0  0  0  0  0  0  0
    3.0820    0.8640   -0.7880 C   0  0  0  0  0  0  0  0  0  0  0  0
    4.1830    0.2470   -0.3140 O   0  0  0  0  0  0  0  0  0  0  0  0
    1.7260    0.3110   -0.7960 C   0  0  0  0  0  0  0  0  0  0  0  0
    1.5040   -0.8760   -0.3120 N   0  0  0  0  0  0  0  0  0  0  0  0
    0.2060   -1.4050   -0.3200 N   0  0  0  0  0  0  0  0  0  0  0  0
   -0.2100   -2.7240    0.1870 C   0  0  0  0  0  0  0  0  0  0  0  0
   -1.7020   -2.7530   -0.0780 C   0  0  0  0  0  0  0  0  0  0  0  0
   -1.9920   -1.5710   -0.6560 N   0  0  0  0  0  0  0  0  0  0  0  0
   -0.9030   -0.8050   -0.7870 C   0  0  0  0  0  0  0  0  0  0  0  0
   -0.9140    0.3060   -1.2800 O   0  0  0  0  0  0  0  0  0  0  0  0
   -3.3350   -1.1720   -1.0840 C   0  0  0  0  0  0  0  0  0  0  0  0
   -4.0460   -0.4580    0.0670 C   0  0  0  0  0  0  0  0  0  0  0  0
   -5.4490   -0.0410   -0.3800 C   0  0  0  0  0  0  0  0  0  0  0  0
   -6.1600    0.6740    0.7700 C   0  0  0  0  0  0  0  0  0  0  0  0
   -7.5070    1.0740    0.3410 N   0  0  0  0  0  0  0  0  0  0  0  0
   -8.2150    1.5280    1.5440 C   0  0  0  0  0  0  0  0  0  0  0  0
   -9.6700    1.8460    1.1940 C   0  0  0  0  0  0  0  0  0  0  0  0
  -10.3460    0.6260    0.7360 N   0  0  0  0  0  0  0  0  0  0  0  0
   -9.6370    0.1720   -0.4670 C   0  0  0  0  0  0  0  0  0  0  0  0
   -8.1830   -0.1460   -0.1170 C   0  0  0  0  0  0  0  0  0  0  0  0
  -11.6920    1.0260    0.3070 C   0  0  0  0  0  0  0  0  0  0  0  0
   -2.4730   -3.6530    0.1770 O   0  0  0  0  0  0  0  0  0  0  0  0
    8.4610   -1.7130    1.3690 H   0  0  0  0  0  0  0  0  0  0  0  0
    6.1490   -1.2040    0.7050 H   0  0  0  0  0  0  0  0  0  0  0  0
    7.4300    2.6230   -0.7540 H   0  0  0  0  0  0  0  0  0  0  0  0
    9.7370    2.0920   -0.0860 H   0  0  0  0  0  0  0  0  0  0  0  0
    5.4460    3.0610   -1.3190 H   0  0  0  0  0  0  0  0  0  0  0  0
    2.7990    2.8280   -1.7130 H   0  0  0  0  0  0  0  0  0  0  0  0
    0.9100    0.8880   -1.2050 H   0  0  0  0  0  0  0  0  0  0  0  0
    0.2930   -3.5220   -0.3600 H   0  0  0  0  0  0  0  0  0  0  0  0
   -0.0080   -2.8050    1.2560 H   0  0  0  0  0  0  0  0  0  0  0  0
   -3.2600   -0.5000   -1.9380 H   0  0  0  0  0  0  0  0  0  0  0  0
   -3.9040   -2.0580   -1.3680 H   0  0  0  0  0  0  0  0  0  0  0  0
   -4.1220   -1.1300    0.9210 H   0  0  0  0  0  0  0  0  0  0  0  0
   -3.4780    0.4280    0.3510 H   0  0  0  0  0  0  0  0  0  0  0  0
   -5.3730    0.6320   -1.2350 H   0  0  0  0  0  0  0  0  0  0  0  0
   -6.0180   -0.9270   -0.6650 H   0  0  0  0  0  0  0  0  0  0  0  0
   -6.2360    0.0010    1.6240 H   0  0  0  0  0  0  0  0  0  0  0  0
   -5.5910    1.5590    1.0540 H   0  0  0  0  0  0  0  0  0  0  0  0
   -8.1880    0.7430    2.3000 H   0  0  0  0  0  0  0  0  0  0  0  0
   -7.7310    2.4230    1.9340 H   0  0  0  0  0  0  0  0  0  0  0  0
  -10.1780    2.2330    2.0770 H   0  0  0  0  0  0  0  0  0  0  0  0
   -9.6970    2.5950    0.4030 H   0  0  0  0  0  0  0  0  0  0  0  0
  -10.1210   -0.7230   -0.8560 H   0  0  0  0  0  0  0  0  0  0  0  0
   -9.6650    0.9570   -1.2220 H   0  0  0  0  0  0  0  0  0  0  0  0
   -7.6740   -0.5340   -1.0000 H   0  0  0  0  0  0  0  0  0  0  0  0
   -8.1560   -0.8950    0.6740 H   0  0  0  0  0  0  0  0  0  0  0  0
  -11.6150    1.7540   -0.5010 H   0  0  0  0  0  0  0  0  0  0  0  0
  -12.2370    0.1500   -0.0440 H   0  0  0  0  0  0  0  0  0  0  0  0
  -12.2240    1.4720    1.1470 H   0  0  0  0  0  0  0  0  0  0  0  0
  1  2  1  0  0  0  0
  1  6  2  0  0  0  0
  1 33  1  0  0  0  0
  2  3  2  0  0  0  0
  2 34  1  0  0  0  0
  3  4  1  0  0  0  0
  3  8  1  0  0  0  0
  4  5  2  0  0  0  0
  4 35  1  0  0  0  0
  5  6  1  0  0  0  0
  5 36  1  0  0  0  0
  6  7  1  0  0  0  0
  8  9  2  0  0  0  0
  8 12  1  0  0  0  0
  9 10  1  0  0  0  0
  9 37  1  0  0  0  0
 10 11  2  0  0  0  0
 10 38  1  0  0  0  0
 11 12  1  0  0  0  0
 11 13  1  0  0  0  0
 13 14  2  0  0  0  0
 13 39  1  0  0  0  0
 14 15  1  0  0  0  0
 15 16  1  0  0  0  0
 15 19  1  0  0  0  0
 16 17  1  0  0  0  0
 16 40  1  0  0  0  0
 16 41  1  0  0  0  0
 17 18  1  0  0  0  0
 17 32  2  0  0  0  0
 18 19  1  0  0  0  0
 18 21  1  0  0  0  0
 19 20  2  0  0  0  0
 21 22  1  0  0  0  0
 21 42  1  0  0  0  0
 21 43  1  0  0  0  0
 22 23  1  0  0  0  0
 22 44  1  0  0  0  0
 22 45  1  0  0  0  0
 23 24  1  0  0  0  0
 23 46  1  0  0  0  0
 23 47  1  0  0  0  0
 24 25  1  0  0  0  0
 24 48  1  0  0  0  0
 24 49  1  0  0  0  0
 25 26  1  0  0  0  0
 25 30  1  0  0  0  0
 26 27  1  0  0  0  0
 26 50  1  0  0  0  0
 26 51  1  0  0  0  0
 27 28  1  0  0  0  0
 27 52  1  0  0  0  0
 27 53  1  0  0  0  0
 28 29  1  0  0  0  0
 28 31  1  0  0  0  0
 29 30  1  0  0  0  0
 29 54  1  0  0  0  0
 29 55  1  0  0  0  0
 30 56  1  0  0  0  0
 30 57  1  0  0  0  0
 31 58  1  0  0  0  0
 31 59  1  0  0  0  0
 31 60  1  0  0  0  0
M  END
>  <UNIQUE_SMILES>
Clc1ccc(-c2oc(/C=N/N3C(=O)N(CCCCN4CCN(C)CC4)C(=O)C3)cc2)cc1

>  <USER_SUPPLIED_SMILES>
Clc1ccc(-c2oc(/C=N/N3C(=O)N(CCCCN4CCN(C)CC4)C(=O)C3)cc2)cc1

$$$$
C26H29ClN4O3
  MOE2018           3D

 63 67  0  0  0  0  0  0  0  0999 V2000
    3.3370    1.8880   -0.5530 C   0  0  0  0  0  0  0  0  0  0  0  0
    3.3550    0.7750    0.2780 C   0  0  0  0  0  0  0  0  0  0  0  0
    4.4070    0.5920    1.1660 C   0  0  0  0  0  0  0  0  0  0  0  0
    5.4310    1.5160    1.2210 C   0  0  0  0  0  0  0  0  0  0  0  0
    5.4100    2.6240    0.3930 C   0  0  0  0  0  0  0  0  0  0  0  0
    4.3640    2.8090   -0.4930 C   0  0  0  0  0  0  0  0  0  0  0  0
    6.5290    3.6310    0.4560 C   0  0  0  0  0  0  0  0  0  0  0  0
    7.6140    3.2390   -0.5140 C   0  0  0  0  0  0  0  0  0  0  0  0
    7.4900    2.2440   -1.1880 O   0  0  0  0  0  0  0  0  0  0  0  0
    8.7160    3.9950   -0.6300 O   0  0  0  0  0  0  0  0  0  0  0  0
    2.3150   -0.1610    0.2190 N   0  0  0  0  0  0  0  0  0  0  0  0
    0.9800    0.1410    0.2710 C   0  0  0  0  0  0  0  0  0  0  0  0
    0.2520   -0.9840    0.1910 C   0  0  0  0  0  0  0  0  0  0  0  0
    1.1960   -2.0990    0.0790 C   0  0  0  0  0  0  0  0  0  0  0  0
    2.4810   -1.5250    0.0960 C   0  0  0  0  0  0  0  0  0  0  0  0
    3.5980   -2.3470    0.0040 C   0  0  0  0  0  0  0  0  0  0  0  0
    3.4410   -3.7120   -0.1040 C   0  0  0  0  0  0  0  0  0  0  0  0
    2.1730   -4.2790   -0.1210 C   0  0  0  0  0  0  0  0  0  0  0  0
    1.0530   -3.4830   -0.0340 C   0  0  0  0  0  0  0  0  0  0  0  0
    2.0000   -6.0010   -0.2580 Cl  0  0  0  0  0  0  0  0  0  0  0  0
   -1.2520   -1.0820    0.2120 C   0  0  0  0  0  0  0  0  0  0  0  0
   -1.7850   -0.5010    1.5250 C   0  0  0  0  0  0  0  0  0  0  0  0
   -3.3140   -0.5000    1.4900 C   0  0  0  0  0  0  0  0  0  0  0  0
   -3.7850    0.3450    0.3880 N   0  0  0  0  0  0  0  0  0  0  0  0
   -3.3610   -0.2930   -0.8630 C   0  0  0  0  0  0  0  0  0  0  0  0
   -1.8340   -0.2830   -0.9580 C   0  0  0  0  0  0  0  0  0  0  0  0
   -5.2530    0.2930    0.4120 C   0  0  0  0  0  0  0  0  0  0  0  0
   -5.8170    1.3420   -0.5480 C   0  0  0  0  0  0  0  0  0  0  0  0
   -7.2810    1.2900   -0.5230 N   0  0  0  0  0  0  0  0  0  0  0  0
   -8.0690    1.9950    0.2980 C   0  0  0  0  0  0  0  0  0  0  0  0
   -9.3770    1.7690    0.1220 N   0  0  0  0  0  0  0  0  0  0  0  0
   -9.5570    0.7830   -0.9540 C   0  0  0  0  0  0  0  0  0  0  0  0
   -8.1180    0.4590   -1.4010 C   0  0  0  0  0  0  0  0  0  0  0  0
   -7.6360    2.7710    1.1290 O   0  0  0  0  0  0  0  0  0  0  0  0
    2.5230    2.0300   -1.2480 H   0  0  0  0  0  0  0  0  0  0  0  0
    4.4240   -0.2730    1.8130 H   0  0  0  0  0  0  0  0  0  0  0  0
    6.2490    1.3750    1.9120 H   0  0  0  0  0  0  0  0  0  0  0  0
    4.3510    3.6740   -1.1380 H   0  0  0  0  0  0  0  0  0  0  0  0
    6.1460    4.6170    0.1930 H   0  0  0  0  0  0  0  0  0  0  0  0
    6.9380    3.6570    1.4660 H   0  0  0  0  0  0  0  0  0  0  0  0
    9.4120    3.7440   -1.2530 H   0  0  0  0  0  0  0  0  0  0  0  0
    0.5730    1.1380    0.3630 H   0  0  0  0  0  0  0  0  0  0  0  0
    4.5880   -1.9160    0.0150 H   0  0  0  0  0  0  0  0  0  0  0  0
    4.3120   -4.3460   -0.1750 H   0  0  0  0  0  0  0  0  0  0  0  0
    0.0680   -3.9270   -0.0480 H   0  0  0  0  0  0  0  0  0  0  0  0
   -1.5500   -2.1270    0.1270 H   0  0  0  0  0  0  0  0  0  0  0  0
   -1.4400   -1.1120    2.3600 H   0  0  0  0  0  0  0  0  0  0  0  0
   -1.4230    0.5200    1.6460 H   0  0  0  0  0  0  0  0  0  0  0  0
   -3.6740   -1.5190    1.3450 H   0  0  0  0  0  0  0  0  0  0  0  0
   -3.6980   -0.1120    2.4340 H   0  0  0  0  0  0  0  0  0  0  0  0
   -3.7190   -1.3220   -0.8840 H   0  0  0  0  0  0  0  0  0  0  0  0
   -3.7800    0.2530   -1.7090 H   0  0  0  0  0  0  0  0  0  0  0  0
   -1.4730    0.7450   -0.9120 H   0  0  0  0  0  0  0  0  0  0  0  0
   -1.5250   -0.7370   -1.8990 H   0  0  0  0  0  0  0  0  0  0  0  0
   -5.5860   -0.6980    0.1040 H   0  0  0  0  0  0  0  0  0  0  0  0
   -5.6070    0.4970    1.4220 H   0  0  0  0  0  0  0  0  0  0  0  0
   -5.4830    2.3330   -0.2390 H   0  0  0  0  0  0  0  0  0  0  0  0
   -5.4630    1.1380   -1.5580 H   0  0  0  0  0  0  0  0  0  0  0  0
  -10.0930    2.1890    0.6250 H   0  0  0  0  0  0  0  0  0  0  0  0
  -10.0540   -0.1100   -0.5760 H   0  0  0  0  0  0  0  0  0  0  0  0
  -10.1220    1.2160   -1.7790 H   0  0  0  0  0  0  0  0  0  0  0  0
   -7.9720    0.7300   -2.4470 H   0  0  0  0  0  0  0  0  0  0  0  0
   -7.8970   -0.5970   -1.2440 H   0  0  0  0  0  0  0  0  0  0  0  0
  1  2  1  0  0  0  0
  1  6  2  0  0  0  0
  1 35  1  0  0  0  0
  2  3  2  0  0  0  0
  2 11  1  0  0  0  0
  3  4  1  0  0  0  0
  3 36  1  0  0  0  0
  4  5  2  0  0  0  0
  4 37  1  0  0  0  0
  5  6  1  0  0  0  0
  5  7  1  0  0  0  0
  6 38  1  0  0  0  0
  7  8  1  0  0  0  0
  7 39  1  0  0  0  0
  7 40  1  0  0  0  0
  8  9  2  0  0  0  0
  8 10  1  0  0  0  0
 10 41  1  0  0  0  0
 11 12  1  0  0  0  0
 11 15  1  0  0  0  0
 12 13  2  0  0  0  0
 12 42  1  0  0  0  0
 13 14  1  0  0  0  0
 13 21  1  0  0  0  0
 14 15  1  0  0  0  0
 14 19  2  0  0  0  0
 15 16  2  0  0  0  0
 16 17  1  0  0  0  0
 16 43  1  0  0  0  0
 17 18  2  0  0  0  0
 17 44  1  0  0  0  0
 18 19  1  0  0  0  0
 18 20  1  0  0  0  0
 19 45  1  0  0  0  0
 21 22  1  0  0  0  0
 21 26  1  0  0  0  0
 21 46  1  0  0  0  0
 22 23  1  0  0  0  0
 22 47  1  0  0  0  0
 22 48  1  0  0  0  0
 23 24  1  0  0  0  0
 23 49  1  0  0  0  0
 23 50  1  0  0  0  0
 24 25  1  0  0  0  0
 24 27  1  0  0  0  0
 25 26  1  0  0  0  0
 25 51  1  0  0  0  0
 25 52  1  0  0  0  0
 26 53  1  0  0  0  0
 26 54  1  0  0  0  0
 27 28  1  0  0  0  0
 27 55  1  0  0  0  0
 27 56  1  0  0  0  0
 28 29  1  0  0  0  0
 28 57  1  0  0  0  0
 28 58  1  0  0  0  0
 29 30  1  0  0  0  0
 29 33  1  0  0  0  0
 30 31  1  0  0  0  0
 30 34  2  0  0  0  0
 31 32  1  0  0  0  0
 31 59  1  0  0  0  0
 32 33  1  0  0  0  0
 32 60  1  0  0  0  0
 32 61  1  0  0  0  0
 33 62  1  0  0  0  0
 33 63  1  0  0  0  0
M  END
>  <UNIQUE_SMILES>
Clc1cc2c(C3CCN(CCN4C(=O)NCC4)CC3)cn(-c3ccc(CC(=O)O)cc3)c2cc1

>  <USER_SUPPLIED_SMILES>
Clc1cc2c(C3CCN(CCN4C(=O)NCC4)CC3)cn(-c3ccc(CC(=O)O)cc3)c2cc1

$$$$
C24H33ClN4O
  MOE2018           3D

 63 67  0  0  0  0  0  0  0  0999 V2000
    3.7580    2.9030   -1.3500 C   0  0  0  0  0  0  0  0  0  0  0  0
    4.1260    2.0900   -0.1070 C   0  0  0  0  0  0  0  0  0  0  0  0
    3.9140    2.9460    1.1430 C   0  0  0  0  0  0  0  0  0  0  0  0
    4.8010    4.1910    1.0660 C   0  0  0  0  0  0  0  0  0  0  0  0
    4.4320    5.0030   -0.1770 C   0  0  0  0  0  0  0  0  0  0  0  0
    4.6450    4.1470   -1.4270 C   0  0  0  0  0  0  0  0  0  0  0  0
    3.2770    0.8990   -0.0330 N   0  0  0  0  0  0  0  0  0  0  0  0
    1.9120    0.9110    0.0520 C   0  0  0  0  0  0  0  0  0  0  0  0
    1.4450   -0.3470    0.1030 C   0  0  0  0  0  0  0  0  0  0  0  0
    2.6070   -1.2370    0.0460 C   0  0  0  0  0  0  0  0  0  0  0  0
    3.7340   -0.4010   -0.0440 C   0  0  0  0  0  0  0  0  0  0  0  0
    5.0020   -0.9670   -0.1150 C   0  0  0  0  0  0  0  0  0  0  0  0
    5.1450   -2.3370   -0.0970 C   0  0  0  0  0  0  0  0  0  0  0  0
    4.0320   -3.1640   -0.0080 C   0  0  0  0  0  0  0  0  0  0  0  0
    2.7670   -2.6240    0.0600 C   0  0  0  0  0  0  0  0  0  0  0  0
    4.2370   -4.8880    0.0130 Cl  0  0  0  0  0  0  0  0  0  0  0  0
    0.0000   -0.7630    0.2000 C   0  0  0  0  0  0  0  0  0  0  0  0
   -0.6140   -0.1900    1.4810 C   0  0  0  0  0  0  0  0  0  0  0  0
   -2.1070   -0.5210    1.5150 C   0  0  0  0  0  0  0  0  0  0  0  0
   -2.7790    0.0960    0.3660 N   0  0  0  0  0  0  0  0  0  0  0  0
   -2.2580   -0.5520   -0.8430 C   0  0  0  0  0  0  0  0  0  0  0  0
   -0.7720   -0.2220   -1.0070 C   0  0  0  0  0  0  0  0  0  0  0  0
   -4.1980   -0.2690    0.4610 C   0  0  0  0  0  0  0  0  0  0  0  0
   -5.0020    0.5400   -0.5590 C   0  0  0  0  0  0  0  0  0  0  0  0
   -6.4180    0.1760   -0.4640 N   0  0  0  0  0  0  0  0  0  0  0  0
   -7.3200    0.7700    0.3280 C   0  0  0  0  0  0  0  0  0  0  0  0
   -8.5520    0.2520    0.2310 N   0  0  0  0  0  0  0  0  0  0  0  0
   -8.5390   -0.8470   -0.7460 C   0  0  0  0  0  0  0  0  0  0  0  0
   -7.0760   -0.8940   -1.2280 C   0  0  0  0  0  0  0  0  0  0  0  0
   -7.0460    1.6950    1.0680 O   0  0  0  0  0  0  0  0  0  0  0  0
    3.9090    2.2930   -2.2410 H   0  0  0  0  0  0  0  0  0  0  0  0
    2.7120    3.2050   -1.2900 H   0  0  0  0  0  0  0  0  0  0  0  0
    5.1720    1.7880   -0.1670 H   0  0  0  0  0  0  0  0  0  0  0  0
    2.8680    3.2490    1.2030 H   0  0  0  0  0  0  0  0  0  0  0  0
    4.1760    2.3680    2.0290 H   0  0  0  0  0  0  0  0  0  0  0  0
    4.6490    4.8010    1.9570 H   0  0  0  0  0  0  0  0  0  0  0  0
    5.8460    3.8890    1.0060 H   0  0  0  0  0  0  0  0  0  0  0  0
    3.3870    5.3050   -0.1170 H   0  0  0  0  0  0  0  0  0  0  0  0
    5.0640    5.8900   -0.2320 H   0  0  0  0  0  0  0  0  0  0  0  0
    5.6900    3.8450   -1.4870 H   0  0  0  0  0  0  0  0  0  0  0  0
    4.3820    4.7260   -2.3130 H   0  0  0  0  0  0  0  0  0  0  0  0
    1.3000    1.8010    0.0750 H   0  0  0  0  0  0  0  0  0  0  0  0
    5.8740   -0.3340   -0.1850 H   0  0  0  0  0  0  0  0  0  0  0  0
    6.1320   -2.7730   -0.1520 H   0  0  0  0  0  0  0  0  0  0  0  0
    1.9040   -3.2700    0.1300 H   0  0  0  0  0  0  0  0  0  0  0  0
   -0.0660   -1.8510    0.2200 H   0  0  0  0  0  0  0  0  0  0  0  0
   -0.1230   -0.6300    2.3490 H   0  0  0  0  0  0  0  0  0  0  0  0
   -0.4800    0.8920    1.4960 H   0  0  0  0  0  0  0  0  0  0  0  0
   -2.2400   -1.6020    1.4750 H   0  0  0  0  0  0  0  0  0  0  0  0
   -2.5420   -0.1370    2.4380 H   0  0  0  0  0  0  0  0  0  0  0  0
   -2.3820   -1.6310   -0.7580 H   0  0  0  0  0  0  0  0  0  0  0  0
   -2.8070   -0.1910   -1.7120 H   0  0  0  0  0  0  0  0  0  0  0  0
   -0.6440    0.8580   -1.0670 H   0  0  0  0  0  0  0  0  0  0  0  0
   -0.3950   -0.6860   -1.9180 H   0  0  0  0  0  0  0  0  0  0  0  0
   -4.3150   -1.3330    0.2550 H   0  0  0  0  0  0  0  0  0  0  0  0
   -4.5630   -0.0510    1.4650 H   0  0  0  0  0  0  0  0  0  0  0  0
   -4.8850    1.6040   -0.3530 H   0  0  0  0  0  0  0  0  0  0  0  0
   -4.6380    0.3220   -1.5630 H   0  0  0  0  0  0  0  0  0  0  0  0
   -9.3290    0.5540    0.7280 H   0  0  0  0  0  0  0  0  0  0  0  0
   -8.8200   -1.7860   -0.2700 H   0  0  0  0  0  0  0  0  0  0  0  0
   -9.2060   -0.6250   -1.5800 H   0  0  0  0  0  0  0  0  0  0  0  0
   -7.0200   -0.6990   -2.2990 H   0  0  0  0  0  0  0  0  0  0  0  0
   -6.6260   -1.8580   -0.9900 H   0  0  0  0  0  0  0  0  0  0  0  0
  1  2  1  0  0  0  0
  1  6  1  0  0  0  0
  1 31  1  0  0  0  0
  1 32  1  0  0  0  0
  2  3  1  0  0  0  0
  2  7  1  0  0  0  0
  2 33  1  0  0  0  0
  3  4  1  0  0  0  0
  3 34  1  0  0  0  0
  3 35  1  0  0  0  0
  4  5  1  0  0  0  0
  4 36  1  0  0  0  0
  4 37  1  0  0  0  0
  5  6  1  0  0  0  0
  5 38  1  0  0  0  0
  5 39  1  0  0  0  0
  6 40  1  0  0  0  0
  6 41  1  0  0  0  0
  7  8  1  0  0  0  0
  7 11  1  0  0  0  0
  8  9  2  0  0  0  0
  8 42  1  0  0  0  0
  9 10  1  0  0  0  0
  9 17  1  0  0  0  0
 10 11  1  0  0  0  0
 10 15  2  0  0  0  0
 11 12  2  0  0  0  0
 12 13  1  0  0  0  0
 12 43  1  0  0  0  0
 13 14  2  0  0  0  0
 13 44  1  0  0  0  0
 14 15  1  0  0  0  0
 14 16  1  0  0  0  0
 15 45  1  0  0  0  0
 17 18  1  0  0  0  0
 17 22  1  0  0  0  0
 17 46  1  0  0  0  0
 18 19  1  0  0  0  0
 18 47  1  0  0  0  0
 18 48  1  0  0  0  0
 19 20  1  0  0  0  0
 19 49  1  0  0  0  0
 19 50  1  0  0  0  0
 20 21  1  0  0  0  0
 20 23  1  0  0  0  0
 21 22  1  0  0  0  0
 21 51  1  0  0  0  0
 21 52  1  0  0  0  0
 22 53  1  0  0  0  0
 22 54  1  0  0  0  0
 23 24  1  0  0  0  0
 23 55  1  0  0  0  0
 23 56  1  0  0  0  0
 24 25  1  0  0  0  0
 24 57  1  0  0  0  0
 24 58  1  0  0  0  0
 25 26  1  0  0  0  0
 25 29  1  0  0  0  0
 26 27  1  0  0  0  0
 26 30  2  0  0  0  0
 27 28  1  0  0  0  0
 27 59  1  0  0  0  0
 28 29  1  0  0  0  0
 28 60  1  0  0  0  0
 28 61  1  0  0  0  0
 29 62  1  0  0  0  0
 29 63  1  0  0  0  0
M  END
>  <UNIQUE_SMILES>
Clc1cc2c(C3CCN(CCN4C(=O)NCC4)CC3)cn(C3CCCCC3)c2cc1

>  <USER_SUPPLIED_SMILES>
Clc1cc2c(C3CCN(CCN4C(=O)NCC4)CC3)cn(C3CCCCC3)c2cc1

$$$$
C27H31ClN4O3
  MOE2018           3D

 66 70  0  0  0  0  0  0  0  0999 V2000
    3.1400    1.6620   -0.4200 C   0  0  0  0  0  0  0  0  0  0  0  0
    3.0970    0.5310    0.3840 C   0  0  0  0  0  0  0  0  0  0  0  0
    4.1260    0.2820    1.2830 C   0  0  0  0  0  0  0  0  0  0  0  0
    5.1880    1.1590    1.3750 C   0  0  0  0  0  0  0  0  0  0  0  0
    5.2280    2.2850    0.5730 C   0  0  0  0  0  0  0  0  0  0  0  0
    4.2050    2.5360   -0.3230 C   0  0  0  0  0  0  0  0  0  0  0  0
    6.3890    3.2410    0.6760 C   0  0  0  0  0  0  0  0  0  0  0  0
    7.4700    2.8240   -0.2880 C   0  0  0  0  0  0  0  0  0  0  0  0
    7.3140    1.8510   -0.9860 O   0  0  0  0  0  0  0  0  0  0  0  0
    8.6060    3.5340   -0.3700 O   0  0  0  0  0  0  0  0  0  0  0  0
    9.6480    3.1330   -1.2980 C   0  0  0  0  0  0  0  0  0  0  0  0
    2.0180   -0.3570    0.2890 N   0  0  0  0  0  0  0  0  0  0  0  0
    0.6970    0.0020    0.3280 C   0  0  0  0  0  0  0  0  0  0  0  0
   -0.0770   -1.0880    0.2110 C   0  0  0  0  0  0  0  0  0  0  0  0
    0.8190   -2.2410    0.0870 C   0  0  0  0  0  0  0  0  0  0  0  0
    2.1270   -1.7240    0.1360 C   0  0  0  0  0  0  0  0  0  0  0  0
    3.2090   -2.5920    0.0410 C   0  0  0  0  0  0  0  0  0  0  0  0
    2.9950   -3.9460   -0.1000 C   0  0  0  0  0  0  0  0  0  0  0  0
    1.7040   -4.4570   -0.1490 C   0  0  0  0  0  0  0  0  0  0  0  0
    0.6180   -3.6140   -0.0600 C   0  0  0  0  0  0  0  0  0  0  0  0
    1.4590   -6.1660   -0.3290 Cl  0  0  0  0  0  0  0  0  0  0  0  0
   -1.5840   -1.1210    0.2080 C   0  0  0  0  0  0  0  0  0  0  0  0
   -2.1120   -0.5480    1.5270 C   0  0  0  0  0  0  0  0  0  0  0  0
   -3.6400   -0.4790    1.4700 C   0  0  0  0  0  0  0  0  0  0  0  0
   -4.0560    0.4110    0.3800 N   0  0  0  0  0  0  0  0  0  0  0  0
   -3.6400   -0.2170   -0.8790 C   0  0  0  0  0  0  0  0  0  0  0  0
   -2.1130   -0.2710   -0.9510 C   0  0  0  0  0  0  0  0  0  0  0  0
   -5.5250    0.4220    0.3820 C   0  0  0  0  0  0  0  0  0  0  0  0
   -6.0280    1.5160   -0.5610 C   0  0  0  0  0  0  0  0  0  0  0  0
   -7.4930    1.5270   -0.5590 N   0  0  0  0  0  0  0  0  0  0  0  0
   -8.2620    2.2480    0.2670 C   0  0  0  0  0  0  0  0  0  0  0  0
   -9.5760    2.0830    0.0670 N   0  0  0  0  0  0  0  0  0  0  0  0
   -9.7820    1.1300   -1.0340 C   0  0  0  0  0  0  0  0  0  0  0  0
   -8.3520    0.7540   -1.4680 C   0  0  0  0  0  0  0  0  0  0  0  0
   -7.8090    2.9840    1.1220 O   0  0  0  0  0  0  0  0  0  0  0  0
    2.3440    1.8560   -1.1230 H   0  0  0  0  0  0  0  0  0  0  0  0
    4.0950   -0.5970    1.9100 H   0  0  0  0  0  0  0  0  0  0  0  0
    5.9890    0.9670    2.0740 H   0  0  0  0  0  0  0  0  0  0  0  0
    4.2400    3.4160   -0.9490 H   0  0  0  0  0  0  0  0  0  0  0  0
    6.0530    4.2480    0.4310 H   0  0  0  0  0  0  0  0  0  0  0  0
    6.7820    3.2260    1.6920 H   0  0  0  0  0  0  0  0  0  0  0  0
   10.4870    3.8240   -1.2240 H   0  0  0  0  0  0  0  0  0  0  0  0
    9.9840    2.1250   -1.0530 H   0  0  0  0  0  0  0  0  0  0  0  0
    9.2540    3.1470   -2.3140 H   0  0  0  0  0  0  0  0  0  0  0  0
    0.3320    1.0130    0.4370 H   0  0  0  0  0  0  0  0  0  0  0  0
    4.2170   -2.2050    0.0770 H   0  0  0  0  0  0  0  0  0  0  0  0
    3.8380   -4.6160   -0.1740 H   0  0  0  0  0  0  0  0  0  0  0  0
   -0.3850   -4.0150   -0.0990 H   0  0  0  0  0  0  0  0  0  0  0  0
   -1.9260   -2.1500    0.0940 H   0  0  0  0  0  0  0  0  0  0  0  0
   -1.8070   -1.1920    2.3520 H   0  0  0  0  0  0  0  0  0  0  0  0
   -1.7080    0.4530    1.6760 H   0  0  0  0  0  0  0  0  0  0  0  0
   -4.0410   -1.4770    1.2960 H   0  0  0  0  0  0  0  0  0  0  0  0
   -4.0210   -0.0960    2.4160 H   0  0  0  0  0  0  0  0  0  0  0  0
   -4.0420   -1.2290   -0.9290 H   0  0  0  0  0  0  0  0  0  0  0  0
   -4.0220    0.3660   -1.7170 H   0  0  0  0  0  0  0  0  0  0  0  0
   -1.7090    0.7390   -0.8760 H   0  0  0  0  0  0  0  0  0  0  0  0
   -1.8090   -0.7170   -1.8980 H   0  0  0  0  0  0  0  0  0  0  0  0
   -5.8960   -0.5460    0.0460 H   0  0  0  0  0  0  0  0  0  0  0  0
   -5.8850    0.6180    1.3920 H   0  0  0  0  0  0  0  0  0  0  0  0
   -5.6570    2.4850   -0.2240 H   0  0  0  0  0  0  0  0  0  0  0  0
   -5.6670    1.3200   -1.5710 H   0  0  0  0  0  0  0  0  0  0  0  0
  -10.2810    2.5220    0.5690 H   0  0  0  0  0  0  0  0  0  0  0  0
  -10.3230    0.2520   -0.6840 H   0  0  0  0  0  0  0  0  0  0  0  0
  -10.3140    1.6060   -1.8580 H   0  0  0  0  0  0  0  0  0  0  0  0
   -8.1780    1.0420   -2.5050 H   0  0  0  0  0  0  0  0  0  0  0  0
   -8.1790   -0.3140   -1.3330 H   0  0  0  0  0  0  0  0  0  0  0  0
  1  2  1  0  0  0  0
  1  6  2  0  0  0  0
  1 36  1  0  0  0  0
  2  3  2  0  0  0  0
  2 12  1  0  0  0  0
  3  4  1  0  0  0  0
  3 37  1  0  0  0  0
  4  5  2  0  0  0  0
  4 38  1  0  0  0  0
  5  6  1  0  0  0  0
  5  7  1  0  0  0  0
  6 39  1  0  0  0  0
  7  8  1  0  0  0  0
  7 40  1  0  0  0  0
  7 41  1  0  0  0  0
  8  9  2  0  0  0  0
  8 10  1  0  0  0  0
 10 11  1  0  0  0  0
 11 42  1  0  0  0  0
 11 43  1  0  0  0  0
 11 44  1  0  0  0  0
 12 13  1  0  0  0  0
 12 16  1  0  0  0  0
 13 14  2  0  0  0  0
 13 45  1  0  0  0  0
 14 15  1  0  0  0  0
 14 22  1  0  0  0  0
 15 16  1  0  0  0  0
 15 20  2  0  0  0  0
 16 17  2  0  0  0  0
 17 18  1  0  0  0  0
 17 46  1  0  0  0  0
 18 19  2  0  0  0  0
 18 47  1  0  0  0  0
 19 20  1  0  0  0  0
 19 21  1  0  0  0  0
 20 48  1  0  0  0  0
 22 23  1  0  0  0  0
 22 27  1  0  0  0  0
 22 49  1  0  0  0  0
 23 24  1  0  0  0  0
 23 50  1  0  0  0  0
 23 51  1  0  0  0  0
 24 25  1  0  0  0  0
 24 52  1  0  0  0  0
 24 53  1  0  0  0  0
 25 26  1  0  0  0  0
 25 28  1  0  0  0  0
 26 27  1  0  0  0  0
 26 54  1  0  0  0  0
 26 55  1  0  0  0  0
 27 56  1  0  0  0  0
 27 57  1  0  0  0  0
 28 29  1  0  0  0  0
 28 58  1  0  0  0  0
 28 59  1  0  0  0  0
 29 30  1  0  0  0  0
 29 60  1  0  0  0  0
 29 61  1  0  0  0  0
 30 31  1  0  0  0  0
 30 34  1  0  0  0  0
 31 32  1  0  0  0  0
 31 35  2  0  0  0  0
 32 33  1  0  0  0  0
 32 62  1  0  0  0  0
 33 34  1  0  0  0  0
 33 63  1  0  0  0  0
 33 64  1  0  0  0  0
 34 65  1  0  0  0  0
 34 66  1  0  0  0  0
M  END
>  <UNIQUE_SMILES>
Clc1cc2c(C3CCN(CCN4C(=O)NCC4)CC3)cn(-c3ccc(CC(=O)OC)cc3)c2cc1

>  <USER_SUPPLIED_SMILES>
Clc1cc2c(C3CCN(CCN4C(=O)NCC4)CC3)cn(-c3ccc(CC(=O)OC)cc3)c2cc1

$$$$
C31H39NO3
  MOE2018           3D

 74 77  0  0  1  0  0  0  0  0999 V2000
   -5.4550    1.2840    0.0090 C   0  0  0  0  0  0  0  0  0  0  0  0
   -6.3520    1.9970   -0.7640 C   0  0  0  0  0  0  0  0  0  0  0  0
   -6.8480    3.2050   -0.3120 C   0  0  0  0  0  0  0  0  0  0  0  0
   -6.4470    3.7010    0.9150 C   0  0  0  0  0  0  0  0  0  0  0  0
   -5.5500    2.9880    1.6890 C   0  0  0  0  0  0  0  0  0  0  0  0
   -5.0540    1.7800    1.2360 C   0  0  0  0  0  0  0  0  0  0  0  0
   -4.9190   -0.0360   -0.4810 C   0  0  0  0  0  0  0  0  0  0  0  0
   -5.8210   -1.1490   -0.0130 C   0  0  0  0  0  0  0  0  0  0  0  0
   -6.8860   -1.5530   -0.7960 C   0  0  0  0  0  0  0  0  0  0  0  0
   -7.7120   -2.5740   -0.3660 C   0  0  0  0  0  0  0  0  0  0  0  0
   -7.4740   -3.1920    0.8470 C   0  0  0  0  0  0  0  0  0  0  0  0
   -6.4090   -2.7890    1.6300 C   0  0  0  0  0  0  0  0  0  0  0  0
   -5.5790   -1.7710    1.1980 C   0  0  0  0  0  0  0  0  0  0  0  0
   -4.8730   -0.0300   -1.9100 O   0  0  0  0  0  0  0  0  0  0  0  0
   -3.5100   -0.2530    0.0740 C   0  0  0  0  0  0  0  0  0  0  0  0
   -2.9640   -1.5950   -0.4240 C   0  0  0  0  0  0  0  0  0  0  0  0
   -1.5150   -1.7520    0.0410 C   0  0  0  0  0  0  0  0  0  0  0  0
   -0.6920   -0.6790   -0.5280 N   0  0  0  0  0  0  0  0  0  0  0  0
   -1.1590    0.5850    0.0520 C   0  0  0  0  0  0  0  0  0  0  0  0
   -2.5890    0.8700   -0.4130 C   0  0  0  0  0  0  0  0  0  0  0  0
    0.6760   -0.8890   -0.0360 C   0  0  0  0  0  0  0  0  0  0  0  0
    1.6350    0.0400   -0.7830 C   0  0  0  0  0  0  0  0  0  0  0  0
    3.0600   -0.1790   -0.2700 C   0  0  0  0  0  0  0  0  0  0  0  0
    4.0190    0.7490   -1.0170 C   0  0  3  0  0  0  0  0  0  0  0  0
    3.7090    2.1080   -0.7020 O   0  0  0  0  0  0  0  0  0  0  0  0
    5.4360    0.4480   -0.6000 C   0  0  0  0  0  0  0  0  0  0  0  0
    6.2430   -0.3320   -1.4080 C   0  0  0  0  0  0  0  0  0  0  0  0
    7.5420   -0.6080   -1.0260 C   0  0  0  0  0  0  0  0  0  0  0  0
    8.0350   -0.1040    0.1630 C   0  0  0  0  0  0  0  0  0  0  0  0
    7.2290    0.6770    0.9700 C   0  0  0  0  0  0  0  0  0  0  0  0
    5.9310    0.9570    0.5860 C   0  0  0  0  0  0  0  0  0  0  0  0
    9.4520   -0.4050    0.5800 C   0  0  0  0  0  0  0  0  0  0  0  0
   10.2640   -0.5750   -0.5830 O   0  0  0  0  0  0  0  0  0  0  0  0
    9.9950    0.7540    1.4170 C   0  0  0  0  0  0  0  0  0  0  0  0
    9.4760   -1.6900    1.4110 C   0  0  0  0  0  0  0  0  0  0  0  0
   -6.6650    1.6090   -1.7230 H   0  0  0  0  0  0  0  0  0  0  0  0
   -7.5480    3.7620   -0.9170 H   0  0  0  0  0  0  0  0  0  0  0  0
   -6.8340    4.6450    1.2680 H   0  0  0  0  0  0  0  0  0  0  0  0
   -5.2370    3.3750    2.6470 H   0  0  0  0  0  0  0  0  0  0  0  0
   -4.3540    1.2230    1.8400 H   0  0  0  0  0  0  0  0  0  0  0  0
   -7.0720   -1.0700   -1.7440 H   0  0  0  0  0  0  0  0  0  0  0  0
   -8.5440   -2.8890   -0.9780 H   0  0  0  0  0  0  0  0  0  0  0  0
   -8.1200   -3.9890    1.1830 H   0  0  0  0  0  0  0  0  0  0  0  0
   -6.2230   -3.2710    2.5790 H   0  0  0  0  0  0  0  0  0  0  0  0
   -4.7470   -1.4560    1.8100 H   0  0  0  0  0  0  0  0  0  0  0  0
   -4.2870    0.6950   -2.1670 H   0  0  0  0  0  0  0  0  0  0  0  0
   -3.5430   -0.2540    1.1630 H   0  0  0  0  0  0  0  0  0  0  0  0
   -3.5660   -2.4070   -0.0170 H   0  0  0  0  0  0  0  0  0  0  0  0
   -3.0020   -1.6220   -1.5130 H   0  0  0  0  0  0  0  0  0  0  0  0
   -1.4760   -1.6990    1.1290 H   0  0  0  0  0  0  0  0  0  0  0  0
   -1.1300   -2.7170   -0.2880 H   0  0  0  0  0  0  0  0  0  0  0  0
   -1.1390    0.5140    1.1390 H   0  0  0  0  0  0  0  0  0  0  0  0
   -0.5050    1.3950   -0.2700 H   0  0  0  0  0  0  0  0  0  0  0  0
   -2.6160    0.9170   -1.5010 H   0  0  0  0  0  0  0  0  0  0  0  0
   -2.9240    1.8210    0.0020 H   0  0  0  0  0  0  0  0  0  0  0  0
    0.7150   -0.6700    1.0310 H   0  0  0  0  0  0  0  0  0  0  0  0
    0.9680   -1.9260   -0.2050 H   0  0  0  0  0  0  0  0  0  0  0  0
    1.5960   -0.1790   -1.8500 H   0  0  0  0  0  0  0  0  0  0  0  0
    1.3430    1.0760   -0.6130 H   0  0  0  0  0  0  0  0  0  0  0  0
    3.1000    0.0390    0.7970 H   0  0  0  0  0  0  0  0  0  0  0  0
    3.3520   -1.2160   -0.4390 H   0  0  0  0  0  0  0  0  0  0  0  0
    3.9150    0.5920   -2.0900 H   0  0  0  0  0  0  0  0  0  0  0  0
    3.8130    2.2040    0.2550 H   0  0  0  0  0  0  0  0  0  0  0  0
    5.8580   -0.7260   -2.3360 H   0  0  0  0  0  0  0  0  0  0  0  0
    8.1720   -1.2180   -1.6560 H   0  0  0  0  0  0  0  0  0  0  0  0
    7.6140    1.0710    1.8990 H   0  0  0  0  0  0  0  0  0  0  0  0
    5.3000    1.5670    1.2160 H   0  0  0  0  0  0  0  0  0  0  0  0
   11.1600   -0.7660   -0.2720 H   0  0  0  0  0  0  0  0  0  0  0  0
    9.3750    0.8840    2.3040 H   0  0  0  0  0  0  0  0  0  0  0  0
   11.0190    0.5360    1.7190 H   0  0  0  0  0  0  0  0  0  0  0  0
    9.9780    1.6690    0.8250 H   0  0  0  0  0  0  0  0  0  0  0  0
    9.0890   -2.5160    0.8150 H   0  0  0  0  0  0  0  0  0  0  0  0
   10.5000   -1.9080    1.7130 H   0  0  0  0  0  0  0  0  0  0  0  0
    8.8560   -1.5600    2.2980 H   0  0  0  0  0  0  0  0  0  0  0  0
  1  2  1  0  0  0  0
  1  6  2  0  0  0  0
  1  7  1  0  0  0  0
  2  3  2  0  0  0  0
  2 36  1  0  0  0  0
  3  4  1  0  0  0  0
  3 37  1  0  0  0  0
  4  5  2  0  0  0  0
  4 38  1  0  0  0  0
  5  6  1  0  0  0  0
  5 39  1  0  0  0  0
  6 40  1  0  0  0  0
  7  8  1  0  0  0  0
  7 14  1  0  0  0  0
  7 15  1  0  0  0  0
  8  9  1  0  0  0  0
  8 13  2  0  0  0  0
  9 10  2  0  0  0  0
  9 41  1  0  0  0  0
 10 11  1  0  0  0  0
 10 42  1  0  0  0  0
 11 12  2  0  0  0  0
 11 43  1  0  0  0  0
 12 13  1  0  0  0  0
 12 44  1  0  0  0  0
 13 45  1  0  0  0  0
 14 46  1  0  0  0  0
 15 16  1  0  0  0  0
 15 20  1  0  0  0  0
 15 47  1  0  0  0  0
 16 17  1  0  0  0  0
 16 48  1  0  0  0  0
 16 49  1  0  0  0  0
 17 18  1  0  0  0  0
 17 50  1  0  0  0  0
 17 51  1  0  0  0  0
 18 19  1  0  0  0  0
 18 21  1  0  0  0  0
 19 20  1  0  0  0  0
 19 52  1  0  0  0  0
 19 53  1  0  0  0  0
 20 54  1  0  0  0  0
 20 55  1  0  0  0  0
 21 22  1  0  0  0  0
 21 56  1  0  0  0  0
 21 57  1  0  0  0  0
 22 23  1  0  0  0  0
 22 58  1  0  0  0  0
 22 59  1  0  0  0  0
 23 24  1  0  0  0  0
 23 60  1  0  0  0  0
 23 61  1  0  0  0  0
 24 25  1  0  0  0  0
 24 26  1  0  0  0  0
 24 62  1  0  0  0  0
 25 63  1  0  0  0  0
 26 27  1  0  0  0  0
 26 31  2  0  0  0  0
 27 28  2  0  0  0  0
 27 64  1  0  0  0  0
 28 29  1  0  0  0  0
 28 65  1  0  0  0  0
 29 30  2  0  0  0  0
 29 32  1  0  0  0  0
 30 31  1  0  0  0  0
 30 66  1  0  0  0  0
 31 67  1  0  0  0  0
 32 33  1  0  0  0  0
 32 34  1  0  0  0  0
 32 35  1  0  0  0  0
 33 68  1  0  0  0  0
 34 69  1  0  0  0  0
 34 70  1  0  0  0  0
 34 71  1  0  0  0  0
 35 72  1  0  0  0  0
 35 73  1  0  0  0  0
 35 74  1  0  0  0  0
M  END
>  <UNIQUE_SMILES>
OC(C)(C)c1ccc(C(O)CCCN2CCC(C(O)(c3ccccc3)c3ccccc3)CC2)cc1

>  <USER_SUPPLIED_SMILES>
OC(C)(C)c1ccc(C(O)CCCN2CCC(C(O)(c3ccccc3)c3ccccc3)CC2)cc1

$$$$
C19H18ClFN2
  MOE2018           3D

 41 44  0  0  0  0  0  0  0  0999 V2000
    2.9170    1.2940   -0.8960 C   0  0  0  0  0  0  0  0  0  0  0  0
    2.3480    0.4040    0.0050 C   0  0  0  0  0  0  0  0  0  0  0  0
    3.1530   -0.2760    0.9080 C   0  0  0  0  0  0  0  0  0  0  0  0
    4.5180   -0.0660    0.9100 C   0  0  0  0  0  0  0  0  0  0  0  0
    5.0840    0.8220    0.0110 C   0  0  0  0  0  0  0  0  0  0  0  0
    4.2830    1.5010   -0.8910 C   0  0  0  0  0  0  0  0  0  0  0  0
    6.4190    1.0260    0.0150 F   0  0  0  0  0  0  0  0  0  0  0  0
    0.9620    0.1930    0.0020 N   0  0  0  0  0  0  0  0  0  0  0  0
    0.0150    1.1820    0.0260 C   0  0  0  0  0  0  0  0  0  0  0  0
   -1.2130    0.6400    0.0150 C   0  0  0  0  0  0  0  0  0  0  0  0
   -1.0400   -0.8150   -0.0190 C   0  0  0  0  0  0  0  0  0  0  0  0
    0.3480   -1.0420   -0.0320 C   0  0  0  0  0  0  0  0  0  0  0  0
    0.8280   -2.3460   -0.0650 C   0  0  0  0  0  0  0  0  0  0  0  0
   -0.0560   -3.4030   -0.0850 C   0  0  0  0  0  0  0  0  0  0  0  0
   -1.4270   -3.1800   -0.0720 C   0  0  0  0  0  0  0  0  0  0  0  0
   -1.9230   -1.8960   -0.0430 C   0  0  0  0  0  0  0  0  0  0  0  0
   -2.5210   -4.5280   -0.0980 Cl  0  0  0  0  0  0  0  0  0  0  0  0
   -2.5220    1.3860    0.0360 C   0  0  0  0  0  0  0  0  0  0  0  0
   -2.6080    2.2380    1.3060 C   0  0  0  0  0  0  0  0  0  0  0  0
   -3.8860    3.0780    1.2640 C   0  0  0  0  0  0  0  0  0  0  0  0
   -3.8490    3.9780    0.1070 N   0  0  0  0  0  0  0  0  0  0  0  0
   -3.8850    3.1430   -1.0980 C   0  0  0  0  0  0  0  0  0  0  0  0
   -2.6070    2.3060   -1.1860 C   0  0  0  0  0  0  0  0  0  0  0  0
    2.2930    1.8210   -1.6030 H   0  0  0  0  0  0  0  0  0  0  0  0
    2.7120   -0.9680    1.6100 H   0  0  0  0  0  0  0  0  0  0  0  0
    5.1440   -0.5950    1.6130 H   0  0  0  0  0  0  0  0  0  0  0  0
    4.7260    2.1940   -1.5910 H   0  0  0  0  0  0  0  0  0  0  0  0
    0.2250    2.2410    0.0510 H   0  0  0  0  0  0  0  0  0  0  0  0
    1.8920   -2.5310   -0.0760 H   0  0  0  0  0  0  0  0  0  0  0  0
    0.3210   -4.4150   -0.1100 H   0  0  0  0  0  0  0  0  0  0  0  0
   -2.9900   -1.7260   -0.0330 H   0  0  0  0  0  0  0  0  0  0  0  0
   -3.3480    0.6750    0.0160 H   0  0  0  0  0  0  0  0  0  0  0  0
   -2.6290    1.5860    2.1800 H   0  0  0  0  0  0  0  0  0  0  0  0
   -1.7410    2.8960    1.3620 H   0  0  0  0  0  0  0  0  0  0  0  0
   -4.7500    2.4190    1.1830 H   0  0  0  0  0  0  0  0  0  0  0  0
   -3.9640    3.6650    2.1780 H   0  0  0  0  0  0  0  0  0  0  0  0
   -4.7110    4.5040    0.1210 H   0  0  0  0  0  0  0  0  0  0  0  0
   -4.7490    2.4800   -1.0550 H   0  0  0  0  0  0  0  0  0  0  0  0
   -3.9620    3.7800   -1.9790 H   0  0  0  0  0  0  0  0  0  0  0  0
   -1.7400    2.9670   -1.2050 H   0  0  0  0  0  0  0  0  0  0  0  0
   -2.6270    1.7050   -2.0950 H   0  0  0  0  0  0  0  0  0  0  0  0
  1  2  1  0  0  0  0
  1  6  2  0  0  0  0
  1 24  1  0  0  0  0
  2  3  2  0  0  0  0
  2  8  1  0  0  0  0
  3  4  1  0  0  0  0
  3 25  1  0  0  0  0
  4  5  2  0  0  0  0
  4 26  1  0  0  0  0
  5  6  1  0  0  0  0
  5  7  1  0  0  0  0
  6 27  1  0  0  0  0
  8  9  1  0  0  0  0
  8 12  1  0  0  0  0
  9 10  2  0  0  0  0
  9 28  1  0  0  0  0
 10 11  1  0  0  0  0
 10 18  1  0  0  0  0
 11 12  1  0  0  0  0
 11 16  2  0  0  0  0
 12 13  2  0  0  0  0
 13 14  1  0  0  0  0
 13 29  1  0  0  0  0
 14 15  2  0  0  0  0
 14 30  1  0  0  0  0
 15 16  1  0  0  0  0
 15 17  1  0  0  0  0
 16 31  1  0  0  0  0
 18 19  1  0  0  0  0
 18 23  1  0  0  0  0
 18 32  1  0  0  0  0
 19 20  1  0  0  0  0
 19 33  1  0  0  0  0
 19 34  1  0  0  0  0
 20 21  1  0  0  0  0
 20 35  1  0  0  0  0
 20 36  1  0  0  0  0
 21 22  1  0  0  0  0
 21 37  1  0  0  0  0
 22 23  1  0  0  0  0
 22 38  1  0  0  0  0
 22 39  1  0  0  0  0
 23 40  1  0  0  0  0
 23 41  1  0  0  0  0
M  END
>  <UNIQUE_SMILES>
Clc1cc2c(C3CCNCC3)cn(-c3ccc(F)cc3)c2cc1

>  <USER_SUPPLIED_SMILES>
Clc1cc2c(C3CCNCC3)cn(-c3ccc(F)cc3)c2cc1

$$$$
C25H29I2NO3
  MOE2018           3D

 60 62  0  0  0  0  0  0  0  0999 V2000
    1.0990   -2.4670    0.8020 I   0  0  0  0  0  0  0  0  0  0  0  0
    0.3670   -0.6090    0.1680 C   0  0  0  0  0  0  0  0  0  0  0  0
    1.2440    0.4520   -0.0260 C   0  0  0  0  0  0  0  0  0  0  0  0
    2.5720    0.2830    0.1950 O   0  0  0  0  0  0  0  0  0  0  0  0
    3.1450   -0.1460   -1.0420 C   0  0  0  0  0  0  0  0  0  0  0  0
    4.6500   -0.3570   -0.8600 C   0  0  0  0  0  0  0  0  0  0  0  0
    4.8800   -1.5140    0.0140 N   0  0  0  0  0  0  0  0  0  0  0  0
    6.2750   -1.9270   -0.1900 C   0  0  0  0  0  0  0  0  0  0  0  0
    6.5630   -3.1820    0.6360 C   0  0  0  0  0  0  0  0  0  0  0  0
    4.7830   -1.0260    1.3960 C   0  0  0  0  0  0  0  0  0  0  0  0
    5.8810    0.0090    1.6500 C   0  0  0  0  0  0  0  0  0  0  0  0
    0.7630    1.6870   -0.4470 C   0  0  0  0  0  0  0  0  0  0  0  0
    2.0890    3.2830   -0.7380 I   0  0  0  0  0  0  0  0  0  0  0  0
   -0.5850    1.8630   -0.6740 C   0  0  0  0  0  0  0  0  0  0  0  0
   -1.4690    0.7980   -0.4790 C   0  0  0  0  0  0  0  0  0  0  0  0
   -2.9140    0.9820   -0.7210 C   0  0  0  0  0  0  0  0  0  0  0  0
   -3.3250    2.0310   -1.1810 O   0  0  0  0  0  0  0  0  0  0  0  0
   -3.8550   -0.1020   -0.4060 C   0  0  0  0  0  0  0  0  0  0  0  0
   -4.5640   -0.2680    0.7460 C   0  0  0  0  0  0  0  0  0  0  0  0
   -5.3150   -1.3710    0.6610 O   0  0  0  0  0  0  0  0  0  0  0  0
   -5.1520   -1.9880   -0.5280 C   0  0  0  0  0  0  0  0  0  0  0  0
   -4.2350   -1.2340   -1.2750 C   0  0  0  0  0  0  0  0  0  0  0  0
   -3.8730   -1.6380   -2.5560 C   0  0  0  0  0  0  0  0  0  0  0  0
   -4.4210   -2.7860   -3.0880 C   0  0  0  0  0  0  0  0  0  0  0  0
   -5.3270   -3.5330   -2.3520 C   0  0  0  0  0  0  0  0  0  0  0  0
   -5.6970   -3.1380   -1.0830 C   0  0  0  0  0  0  0  0  0  0  0  0
   -4.5090    0.6540    1.9370 C   0  0  0  0  0  0  0  0  0  0  0  0
   -5.5710    1.7450    1.7870 C   0  0  0  0  0  0  0  0  0  0  0  0
   -5.5150    2.6810    2.9970 C   0  0  0  0  0  0  0  0  0  0  0  0
   -6.5770    3.7720    2.8470 C   0  0  0  0  0  0  0  0  0  0  0  0
   -0.9810   -0.4430   -0.0610 C   0  0  0  0  0  0  0  0  0  0  0  0
    2.6820   -1.0840   -1.3510 H   0  0  0  0  0  0  0  0  0  0  0  0
    2.9740    0.6130   -1.8050 H   0  0  0  0  0  0  0  0  0  0  0  0
    5.1110   -0.5380   -1.8310 H   0  0  0  0  0  0  0  0  0  0  0  0
    5.0890    0.5320   -0.4090 H   0  0  0  0  0  0  0  0  0  0  0  0
    6.4400   -2.1410   -1.2460 H   0  0  0  0  0  0  0  0  0  0  0  0
    6.9420   -1.1240    0.1260 H   0  0  0  0  0  0  0  0  0  0  0  0
    7.6170   -3.4430    0.5450 H   0  0  0  0  0  0  0  0  0  0  0  0
    6.3240   -2.9910    1.6820 H   0  0  0  0  0  0  0  0  0  0  0  0
    5.9510   -4.0060    0.2690 H   0  0  0  0  0  0  0  0  0  0  0  0
    3.8070   -0.5650    1.5510 H   0  0  0  0  0  0  0  0  0  0  0  0
    4.9040   -1.8600    2.0860 H   0  0  0  0  0  0  0  0  0  0  0  0
    5.8320    0.3440    2.6860 H   0  0  0  0  0  0  0  0  0  0  0  0
    6.8550   -0.4400    1.4580 H   0  0  0  0  0  0  0  0  0  0  0  0
    5.7370    0.8620    0.9860 H   0  0  0  0  0  0  0  0  0  0  0  0
   -0.9570    2.8230   -1.0000 H   0  0  0  0  0  0  0  0  0  0  0  0
   -3.1680   -1.0560   -3.1300 H   0  0  0  0  0  0  0  0  0  0  0  0
   -4.1440   -3.1040   -4.0820 H   0  0  0  0  0  0  0  0  0  0  0  0
   -5.7520   -4.4300   -2.7770 H   0  0  0  0  0  0  0  0  0  0  0  0
   -6.4040   -3.7280   -0.5180 H   0  0  0  0  0  0  0  0  0  0  0  0
   -4.6990    0.0840    2.8460 H   0  0  0  0  0  0  0  0  0  0  0  0
   -3.5220    1.1130    1.9960 H   0  0  0  0  0  0  0  0  0  0  0  0
   -5.3810    2.3150    0.8780 H   0  0  0  0  0  0  0  0  0  0  0  0
   -6.5580    1.2860    1.7290 H   0  0  0  0  0  0  0  0  0  0  0  0
   -5.7050    2.1110    3.9060 H   0  0  0  0  0  0  0  0  0  0  0  0
   -4.5280    3.1400    3.0550 H   0  0  0  0  0  0  0  0  0  0  0  0
   -6.5370    4.4380    3.7090 H   0  0  0  0  0  0  0  0  0  0  0  0
   -6.3870    4.3420    1.9380 H   0  0  0  0  0  0  0  0  0  0  0  0
   -7.5640    3.3120    2.7880 H   0  0  0  0  0  0  0  0  0  0  0  0
   -1.6610   -1.2680    0.0890 H   0  0  0  0  0  0  0  0  0  0  0  0
  1  2  1  0  0  0  0
  2  3  1  0  0  0  0
  2 31  2  0  0  0  0
  3  4  1  0  0  0  0
  3 12  2  0  0  0  0
  4  5  1  0  0  0  0
  5  6  1  0  0  0  0
  5 32  1  0  0  0  0
  5 33  1  0  0  0  0
  6  7  1  0  0  0  0
  6 34  1  0  0  0  0
  6 35  1  0  0  0  0
  7  8  1  0  0  0  0
  7 10  1  0  0  0  0
  8  9  1  0  0  0  0
  8 36  1  0  0  0  0
  8 37  1  0  0  0  0
  9 38  1  0  0  0  0
  9 39  1  0  0  0  0
  9 40  1  0  0  0  0
 10 11  1  0  0  0  0
 10 41  1  0  0  0  0
 10 42  1  0  0  0  0
 11 43  1  0  0  0  0
 11 44  1  0  0  0  0
 11 45  1  0  0  0  0
 12 13  1  0  0  0  0
 12 14  1  0  0  0  0
 14 15  2  0  0  0  0
 14 46  1  0  0  0  0
 15 16  1  0  0  0  0
 15 31  1  0  0  0  0
 16 17  2  0  0  0  0
 16 18  1  0  0  0  0
 18 19  2  0  0  0  0
 18 22  1  0  0  0  0
 19 20  1  0  0  0  0
 19 27  1  0  0  0  0
 20 21  1  0  0  0  0
 21 22  1  0  0  0  0
 21 26  2  0  0  0  0
 22 23  2  0  0  0  0
 23 24  1  0  0  0  0
 23 47  1  0  0  0  0
 24 25  2  0  0  0  0
 24 48  1  0  0  0  0
 25 26  1  0  0  0  0
 25 49  1  0  0  0  0
 26 50  1  0  0  0  0
 27 28  1  0  0  0  0
 27 51  1  0  0  0  0
 27 52  1  0  0  0  0
 28 29  1  0  0  0  0
 28 53  1  0  0  0  0
 28 54  1  0  0  0  0
 29 30  1  0  0  0  0
 29 55  1  0  0  0  0
 29 56  1  0  0  0  0
 30 57  1  0  0  0  0
 30 58  1  0  0  0  0
 30 59  1  0  0  0  0
 31 60  1  0  0  0  0
M  END
>  <UNIQUE_SMILES>
Ic1c(OCCN(CC)CC)c(I)cc(C(=O)c2c(CCCC)oc3c2cccc3)c1

>  <USER_SUPPLIED_SMILES>
Ic1c(OCCN(CC)CC)c(I)cc(C(=O)c2c(CCCC)oc3c2cccc3)c1

$$$$
C21H19N3O3S
  MOE2018           3D

 47 50  0  0  0  0  0  0  0  0999 V2000
   -5.0470    0.5220   -0.7510 S   0  0  0  0  0  0  0  0  0  0  0  0
   -6.1770    0.1060   -1.5060 O   0  0  0  0  0  0  0  0  0  0  0  0
   -5.0150    0.4410    0.6670 O   0  0  0  0  0  0  0  0  0  0  0  0
   -3.8820   -0.5640   -1.2070 N   0  0  0  0  0  0  0  0  0  0  0  0
   -2.6320   -0.5530   -0.5800 C   0  0  0  0  0  0  0  0  0  0  0  0
   -2.4960   -1.0610    0.7060 C   0  0  0  0  0  0  0  0  0  0  0  0
   -1.2580   -1.0500    1.3260 C   0  0  0  0  0  0  0  0  0  0  0  0
   -1.1220   -1.5460    2.5840 O   0  0  0  0  0  0  0  0  0  0  0  0
   -2.4150   -1.9990    2.9910 C   0  0  0  0  0  0  0  0  0  0  0  0
   -0.1510   -0.5290    0.6580 C   0  0  0  0  0  0  0  0  0  0  0  0
    1.1030   -0.5170    1.2830 N   0  0  0  0  0  0  0  0  0  0  0  0
    2.2200   -0.1200    0.5800 C   0  0  0  0  0  0  0  0  0  0  0  0
    2.6140    1.2320    0.5410 C   0  0  0  0  0  0  0  0  0  0  0  0
    3.7710    1.6000   -0.1940 C   0  0  0  0  0  0  0  0  0  0  0  0
    4.4850    0.6830   -0.8460 N   0  0  0  0  0  0  0  0  0  0  0  0
    4.1500   -0.6060   -0.8380 C   0  0  0  0  0  0  0  0  0  0  0  0
    3.0090   -1.0550   -0.1210 C   0  0  0  0  0  0  0  0  0  0  0  0
    2.6760   -2.4200   -0.1270 C   0  0  0  0  0  0  0  0  0  0  0  0
    3.4510   -3.2990   -0.8200 C   0  0  0  0  0  0  0  0  0  0  0  0
    4.5720   -2.8620   -1.5250 C   0  0  0  0  0  0  0  0  0  0  0  0
    4.9270   -1.5500   -1.5380 C   0  0  0  0  0  0  0  0  0  0  0  0
    4.1550    2.9570   -0.2240 C   0  0  0  0  0  0  0  0  0  0  0  0
    3.4180    3.8830    0.4450 C   0  0  0  0  0  0  0  0  0  0  0  0
    2.2830    3.5160    1.1670 C   0  0  0  0  0  0  0  0  0  0  0  0
    1.8790    2.2180    1.2210 C   0  0  0  0  0  0  0  0  0  0  0  0
   -0.2910   -0.0230   -0.6260 C   0  0  0  0  0  0  0  0  0  0  0  0
   -1.5270   -0.0390   -1.2450 C   0  0  0  0  0  0  0  0  0  0  0  0
   -4.3910    2.1050   -1.3460 C   0  0  0  0  0  0  0  0  0  0  0  0
   -4.0670   -1.2080   -1.9090 H   0  0  0  0  0  0  0  0  0  0  0  0
   -3.3550   -1.4630    1.2220 H   0  0  0  0  0  0  0  0  0  0  0  0
   -2.3560   -2.4080    3.9990 H   0  0  0  0  0  0  0  0  0  0  0  0
   -3.1140   -1.1630    2.9790 H   0  0  0  0  0  0  0  0  0  0  0  0
   -2.7620   -2.7720    2.3050 H   0  0  0  0  0  0  0  0  0  0  0  0
    1.1850   -0.7880    2.2110 H   0  0  0  0  0  0  0  0  0  0  0  0
    1.8110   -2.7700    0.4150 H   0  0  0  0  0  0  0  0  0  0  0  0
    3.1940   -4.3480   -0.8240 H   0  0  0  0  0  0  0  0  0  0  0  0
    5.1700   -3.5800   -2.0670 H   0  0  0  0  0  0  0  0  0  0  0  0
    5.7990   -1.2310   -2.0900 H   0  0  0  0  0  0  0  0  0  0  0  0
    5.0320    3.2590   -0.7770 H   0  0  0  0  0  0  0  0  0  0  0  0
    3.7180    4.9200    0.4180 H   0  0  0  0  0  0  0  0  0  0  0  0
    1.7160    4.2730    1.6900 H   0  0  0  0  0  0  0  0  0  0  0  0
    0.9980    1.9470    1.7830 H   0  0  0  0  0  0  0  0  0  0  0  0
    0.5660    0.3810   -1.1440 H   0  0  0  0  0  0  0  0  0  0  0  0
   -1.6340    0.3550   -2.2450 H   0  0  0  0  0  0  0  0  0  0  0  0
   -5.2160    2.7920   -1.5350 H   0  0  0  0  0  0  0  0  0  0  0  0
   -3.7300    2.5300   -0.5920 H   0  0  0  0  0  0  0  0  0  0  0  0
   -3.8340    1.9440   -2.2690 H   0  0  0  0  0  0  0  0  0  0  0  0
  1  2  2  0  0  0  0
  1  3  2  0  0  0  0
  1  4  1  0  0  0  0
  1 28  1  0  0  0  0
  4  5  1  0  0  0  0
  4 29  1  0  0  0  0
  5  6  1  0  0  0  0
  5 27  2  0  0  0  0
  6  7  2  0  0  0  0
  6 30  1  0  0  0  0
  7  8  1  0  0  0  0
  7 10  1  0  0  0  0
  8  9  1  0  0  0  0
  9 31  1  0  0  0  0
  9 32  1  0  0  0  0
  9 33  1  0  0  0  0
 10 11  1  0  0  0  0
 10 26  2  0  0  0  0
 11 12  1  0  0  0  0
 11 34  1  0  0  0  0
 12 13  2  0  0  0  0
 12 17  1  0  0  0  0
 13 14  1  0  0  0  0
 13 25  1  0  0  0  0
 14 15  2  0  0  0  0
 14 22  1  0  0  0  0
 15 16  1  0  0  0  0
 16 17  1  0  0  0  0
 16 21  2  0  0  0  0
 17 18  2  0  0  0  0
 18 19  1  0  0  0  0
 18 35  1  0  0  0  0
 19 20  2  0  0  0  0
 19 36  1  0  0  0  0
 20 21  1  0  0  0  0
 20 37  1  0  0  0  0
 21 38  1  0  0  0  0
 22 23  2  0  0  0  0
 22 39  1  0  0  0  0
 23 24  1  0  0  0  0
 23 40  1  0  0  0  0
 24 25  2  0  0  0  0
 24 41  1  0  0  0  0
 25 42  1  0  0  0  0
 26 27  1  0  0  0  0
 26 43  1  0  0  0  0
 27 44  1  0  0  0  0
 28 45  1  0  0  0  0
 28 46  1  0  0  0  0
 28 47  1  0  0  0  0
M  END
>  <UNIQUE_SMILES>
S(=O)(=O)(Nc1cc(OC)c(Nc2c3c(nc4c2cccc4)cccc3)cc1)C

>  <USER_SUPPLIED_SMILES>
S(=O)(=O)(Nc1cc(OC)c(Nc2c3c(nc4c2cccc4)cccc3)cc1)C

$$$$
C22H24ClN5O2
  MOE2018           3D

 54 58  0  0  0  0  0  0  0  0999 V2000
   -8.7820   -1.5220   -0.2120 Cl  0  0  0  0  0  0  0  0  0  0  0  0
   -7.1430   -0.9550   -0.1440 C   0  0  0  0  0  0  0  0  0  0  0  0
   -6.7270   -0.1800    0.9230 C   0  0  0  0  0  0  0  0  0  0  0  0
   -5.4180    0.2720    0.9770 C   0  0  0  0  0  0  0  0  0  0  0  0
   -4.7120    1.0490    1.8930 N   0  0  0  0  0  0  0  0  0  0  0  0
   -3.4490    1.1870    1.4480 C   0  0  0  0  0  0  0  0  0  0  0  0
   -2.5710    1.8100    2.0150 O   0  0  0  0  0  0  0  0  0  0  0  0
   -3.3050    0.5320    0.2810 N   0  0  0  0  0  0  0  0  0  0  0  0
   -4.5250   -0.0560   -0.0460 C   0  0  0  0  0  0  0  0  0  0  0  0
   -4.9520   -0.8330   -1.1120 C   0  0  0  0  0  0  0  0  0  0  0  0
   -6.2560   -1.2840   -1.1550 C   0  0  0  0  0  0  0  0  0  0  0  0
   -2.0750    0.4510   -0.5110 C   0  0  0  0  0  0  0  0  0  0  0  0
   -1.6330    1.8600   -0.9180 C   0  0  0  0  0  0  0  0  0  0  0  0
   -0.2900    1.7760   -1.6450 C   0  0  0  0  0  0  0  0  0  0  0  0
    0.7260    1.2160   -0.7470 N   0  0  0  0  0  0  0  0  0  0  0  0
    0.3420   -0.1710   -0.4640 C   0  0  0  0  0  0  0  0  0  0  0  0
   -0.9670   -0.1940    0.3280 C   0  0  0  0  0  0  0  0  0  0  0  0
    1.9790    1.1590   -1.5120 C   0  0  0  0  0  0  0  0  0  0  0  0
    3.1360    0.8200   -0.5690 C   0  0  0  0  0  0  0  0  0  0  0  0
    4.4420    0.7610   -1.3650 C   0  0  0  0  0  0  0  0  0  0  0  0
    5.5490    0.4370   -0.4630 N   0  0  0  0  0  0  0  0  0  0  0  0
    5.9990   -0.8440   -0.1520 C   0  0  0  0  0  0  0  0  0  0  0  0
    7.0650   -0.6930    0.7370 C   0  0  0  0  0  0  0  0  0  0  0  0
    7.2300    0.6750    0.9390 N   0  0  0  0  0  0  0  0  0  0  0  0
    6.3100    1.3260    0.2030 C   0  0  0  0  0  0  0  0  0  0  0  0
    6.1800    2.5350    0.1520 O   0  0  0  0  0  0  0  0  0  0  0  0
    7.7200   -1.8120    1.2260 C   0  0  0  0  0  0  0  0  0  0  0  0
    7.3160   -3.0730    0.8310 C   0  0  0  0  0  0  0  0  0  0  0  0
    6.2600   -3.2230   -0.0510 C   0  0  0  0  0  0  0  0  0  0  0  0
    5.6000   -2.1130   -0.5430 C   0  0  0  0  0  0  0  0  0  0  0  0
   -7.4200    0.0720    1.7120 H   0  0  0  0  0  0  0  0  0  0  0  0
   -5.0700    1.4270    2.7120 H   0  0  0  0  0  0  0  0  0  0  0  0
   -4.2640   -1.0880   -1.9040 H   0  0  0  0  0  0  0  0  0  0  0  0
   -6.5880   -1.8900   -1.9860 H   0  0  0  0  0  0  0  0  0  0  0  0
   -2.2540   -0.1470   -1.4040 H   0  0  0  0  0  0  0  0  0  0  0  0
   -2.3800    2.2980   -1.5810 H   0  0  0  0  0  0  0  0  0  0  0  0
   -1.5270    2.4800   -0.0280 H   0  0  0  0  0  0  0  0  0  0  0  0
   -0.3920    1.1360   -2.5210 H   0  0  0  0  0  0  0  0  0  0  0  0
    0.0150    2.7740   -1.9600 H   0  0  0  0  0  0  0  0  0  0  0  0
    0.2060   -0.7080   -1.4030 H   0  0  0  0  0  0  0  0  0  0  0  0
    1.1260   -0.6530    0.1180 H   0  0  0  0  0  0  0  0  0  0  0  0
   -0.8410    0.3640    1.2560 H   0  0  0  0  0  0  0  0  0  0  0  0
   -1.2370   -1.2250    0.5560 H   0  0  0  0  0  0  0  0  0  0  0  0
    1.9010    0.3920   -2.2810 H   0  0  0  0  0  0  0  0  0  0  0  0
    2.1630    2.1260   -1.9800 H   0  0  0  0  0  0  0  0  0  0  0  0
    3.2140    1.5880    0.2010 H   0  0  0  0  0  0  0  0  0  0  0  0
    2.9520   -0.1460   -0.1010 H   0  0  0  0  0  0  0  0  0  0  0  0
    4.3630   -0.0060   -2.1350 H   0  0  0  0  0  0  0  0  0  0  0  0
    4.6260    1.7280   -1.8330 H   0  0  0  0  0  0  0  0  0  0  0  0
    7.8950    1.0890    1.5110 H   0  0  0  0  0  0  0  0  0  0  0  0
    8.5450   -1.6990    1.9140 H   0  0  0  0  0  0  0  0  0  0  0  0
    7.8270   -3.9450    1.2120 H   0  0  0  0  0  0  0  0  0  0  0  0
    5.9510   -4.2120   -0.3560 H   0  0  0  0  0  0  0  0  0  0  0  0
    4.7770   -2.2340   -1.2310 H   0  0  0  0  0  0  0  0  0  0  0  0
  1  2  1  0  0  0  0
  2  3  1  0  0  0  0
  2 11  2  0  0  0  0
  3  4  2  0  0  0  0
  3 31  1  0  0  0  0
  4  5  1  0  0  0  0
  4  9  1  0  0  0  0
  5  6  1  0  0  0  0
  5 32  1  0  0  0  0
  6  7  2  0  0  0  0
  6  8  1  0  0  0  0
  8  9  1  0  0  0  0
  8 12  1  0  0  0  0
  9 10  2  0  0  0  0
 10 11  1  0  0  0  0
 10 33  1  0  0  0  0
 11 34  1  0  0  0  0
 12 13  1  0  0  0  0
 12 17  1  0  0  0  0
 12 35  1  0  0  0  0
 13 14  1  0  0  0  0
 13 36  1  0  0  0  0
 13 37  1  0  0  0  0
 14 15  1  0  0  0  0
 14 38  1  0  0  0  0
 14 39  1  0  0  0  0
 15 16  1  0  0  0  0
 15 18  1  0  0  0  0
 16 17  1  0  0  0  0
 16 40  1  0  0  0  0
 16 41  1  0  0  0  0
 17 42  1  0  0  0  0
 17 43  1  0  0  0  0
 18 19  1  0  0  0  0
 18 44  1  0  0  0  0
 18 45  1  0  0  0  0
 19 20  1  0  0  0  0
 19 46  1  0  0  0  0
 19 47  1  0  0  0  0
 20 21  1  0  0  0  0
 20 48  1  0  0  0  0
 20 49  1  0  0  0  0
 21 22  1  0  0  0  0
 21 25  1  0  0  0  0
 22 23  1  0  0  0  0
 22 30  2  0  0  0  0
 23 24  1  0  0  0  0
 23 27  2  0  0  0  0
 24 25  1  0  0  0  0
 24 50  1  0  0  0  0
 25 26  2  0  0  0  0
 27 28  1  0  0  0  0
 27 51  1  0  0  0  0
 28 29  2  0  0  0  0
 28 52  1  0  0  0  0
 29 30  1  0  0  0  0
 29 53  1  0  0  0  0
 30 54  1  0  0  0  0
M  END
>  <UNIQUE_SMILES>
Clc1cc2NC(=O)N(C3CCN(CCCN4C(=O)Nc5c4cccc5)CC3)c2cc1

>  <USER_SUPPLIED_SMILES>
Clc1cc2NC(=O)N(C3CCN(CCCN4C(=O)Nc5c4cccc5)CC3)c2cc1

$$$$
C32H39NO2
  MOE2018           3D

 74 77  0  0  0  0  0  0  0  0999 V2000
    1.2730    1.4820   -1.1630 C   0  0  0  0  0  0  0  0  0  0  0  0
    0.3450    1.1430   -0.0780 N   0  0  0  0  0  0  0  0  0  0  0  0
    0.7130   -0.1910    0.4090 C   0  0  0  0  0  0  0  0  0  0  0  0
    2.1000   -0.1430    1.0520 C   0  0  0  0  0  0  0  0  0  0  0  0
    3.1280    0.2860    0.0000 C   0  0  0  0  0  0  0  0  0  0  0  0
    2.6910    1.6230   -0.6060 C   0  0  0  0  0  0  0  0  0  0  0  0
    4.4090    0.4370    0.6170 O   0  0  0  0  0  0  0  0  0  0  0  0
    5.3860    0.1320   -0.3800 C   0  0  0  0  0  0  0  0  0  0  0  0
    6.6410    0.9220   -0.1130 C   0  0  0  0  0  0  0  0  0  0  0  0
    7.3440    1.4800   -1.1640 C   0  0  0  0  0  0  0  0  0  0  0  0
    8.4940    2.2050   -0.9190 C   0  0  0  0  0  0  0  0  0  0  0  0
    8.9420    2.3730    0.3780 C   0  0  0  0  0  0  0  0  0  0  0  0
    8.2390    1.8160    1.4300 C   0  0  0  0  0  0  0  0  0  0  0  0
    7.0860    1.0940    1.1850 C   0  0  0  0  0  0  0  0  0  0  0  0
    5.7020   -1.3410   -0.3400 C   0  0  0  0  0  0  0  0  0  0  0  0
    5.9840   -2.0200   -1.5100 C   0  0  0  0  0  0  0  0  0  0  0  0
    6.2740   -3.3710   -1.4730 C   0  0  0  0  0  0  0  0  0  0  0  0
    6.2820   -4.0440   -0.2650 C   0  0  0  0  0  0  0  0  0  0  0  0
    6.0000   -3.3640    0.9060 C   0  0  0  0  0  0  0  0  0  0  0  0
    5.7150   -2.0120    0.8690 C   0  0  0  0  0  0  0  0  0  0  0  0
   -0.9870    1.0180   -0.6860 C   0  0  0  0  0  0  0  0  0  0  0  0
   -1.9920    0.5690    0.3770 C   0  0  0  0  0  0  0  0  0  0  0  0
   -3.4000    0.5710   -0.2200 C   0  0  0  0  0  0  0  0  0  0  0  0
   -4.3900    0.1290    0.8270 C   0  0  0  0  0  0  0  0  0  0  0  0
   -4.0070   -0.1580    1.9410 O   0  0  0  0  0  0  0  0  0  0  0  0
   -5.8220    0.0470    0.4980 C   0  0  0  0  0  0  0  0  0  0  0  0
   -6.7440   -0.3620    1.4670 C   0  0  0  0  0  0  0  0  0  0  0  0
   -8.0840   -0.4370    1.1500 C   0  0  0  0  0  0  0  0  0  0  0  0
   -8.5180   -0.1080   -0.1220 C   0  0  0  0  0  0  0  0  0  0  0  0
   -7.6120    0.2980   -1.0860 C   0  0  0  0  0  0  0  0  0  0  0  0
   -6.2690    0.3840   -0.7840 C   0  0  0  0  0  0  0  0  0  0  0  0
   -9.9840   -0.1930   -0.4600 C   0  0  0  0  0  0  0  0  0  0  0  0
  -10.7730    0.7450    0.4560 C   0  0  0  0  0  0  0  0  0  0  0  0
  -10.1960    0.2200   -1.9180 C   0  0  0  0  0  0  0  0  0  0  0  0
  -10.4700   -1.6300   -0.2610 C   0  0  0  0  0  0  0  0  0  0  0  0
    1.2550    0.6940   -1.9150 H   0  0  0  0  0  0  0  0  0  0  0  0
    0.9670    2.4240   -1.6190 H   0  0  0  0  0  0  0  0  0  0  0  0
   -0.0180   -0.5220    1.1470 H   0  0  0  0  0  0  0  0  0  0  0  0
    0.7250   -0.8920   -0.4260 H   0  0  0  0  0  0  0  0  0  0  0  0
    2.0970    0.5750    1.8720 H   0  0  0  0  0  0  0  0  0  0  0  0
    2.3600   -1.1310    1.4330 H   0  0  0  0  0  0  0  0  0  0  0  0
    3.1860   -0.4690   -0.7830 H   0  0  0  0  0  0  0  0  0  0  0  0
    3.3720    1.8980   -1.4110 H   0  0  0  0  0  0  0  0  0  0  0  0
    2.7050    2.3940    0.1640 H   0  0  0  0  0  0  0  0  0  0  0  0
    4.9950    0.3920   -1.3640 H   0  0  0  0  0  0  0  0  0  0  0  0
    6.9940    1.3490   -2.1770 H   0  0  0  0  0  0  0  0  0  0  0  0
    9.0440    2.6400   -1.7400 H   0  0  0  0  0  0  0  0  0  0  0  0
    9.8420    2.9380    0.5700 H   0  0  0  0  0  0  0  0  0  0  0  0
    8.5890    1.9460    2.4430 H   0  0  0  0  0  0  0  0  0  0  0  0
    6.5360    0.6590    2.0060 H   0  0  0  0  0  0  0  0  0  0  0  0
    5.9780   -1.4950   -2.4540 H   0  0  0  0  0  0  0  0  0  0  0  0
    6.4940   -3.9020   -2.3870 H   0  0  0  0  0  0  0  0  0  0  0  0
    6.5080   -5.0990   -0.2360 H   0  0  0  0  0  0  0  0  0  0  0  0
    6.0060   -3.8900    1.8500 H   0  0  0  0  0  0  0  0  0  0  0  0
    5.4950   -1.4820    1.7840 H   0  0  0  0  0  0  0  0  0  0  0  0
   -1.2930    1.9820   -1.0910 H   0  0  0  0  0  0  0  0  0  0  0  0
   -0.9530    0.2800   -1.4880 H   0  0  0  0  0  0  0  0  0  0  0  0
   -1.7400   -0.4370    0.7130 H   0  0  0  0  0  0  0  0  0  0  0  0
   -1.9550    1.2550    1.2240 H   0  0  0  0  0  0  0  0  0  0  0  0
   -3.6510    1.5770   -0.5560 H   0  0  0  0  0  0  0  0  0  0  0  0
   -3.4370   -0.1140   -1.0660 H   0  0  0  0  0  0  0  0  0  0  0  0
   -6.4070   -0.6200    2.4600 H   0  0  0  0  0  0  0  0  0  0  0  0
   -8.7970   -0.7530    1.8970 H   0  0  0  0  0  0  0  0  0  0  0  0
   -7.9580    0.5530   -2.0770 H   0  0  0  0  0  0  0  0  0  0  0  0
   -5.5630    0.7010   -1.5370 H   0  0  0  0  0  0  0  0  0  0  0  0
  -10.4260    1.7680    0.3140 H   0  0  0  0  0  0  0  0  0  0  0  0
  -11.8340    0.6830    0.2120 H   0  0  0  0  0  0  0  0  0  0  0  0
  -10.6220    0.4500    1.4950 H   0  0  0  0  0  0  0  0  0  0  0  0
   -9.6340   -0.4480   -2.5700 H   0  0  0  0  0  0  0  0  0  0  0  0
  -11.2570    0.1590   -2.1620 H   0  0  0  0  0  0  0  0  0  0  0  0
   -9.8500    1.2440   -2.0600 H   0  0  0  0  0  0  0  0  0  0  0  0
  -10.3190   -1.9240    0.7780 H   0  0  0  0  0  0  0  0  0  0  0  0
  -11.5310   -1.6910   -0.5050 H   0  0  0  0  0  0  0  0  0  0  0  0
   -9.9080   -2.2970   -0.9130 H   0  0  0  0  0  0  0  0  0  0  0  0
  1  2  1  0  0  0  0
  1  6  1  0  0  0  0
  1 36  1  0  0  0  0
  1 37  1  0  0  0  0
  2  3  1  0  0  0  0
  2 21  1  0  0  0  0
  3  4  1  0  0  0  0
  3 38  1  0  0  0  0
  3 39  1  0  0  0  0
  4  5  1  0  0  0  0
  4 40  1  0  0  0  0
  4 41  1  0  0  0  0
  5  6  1  0  0  0  0
  5  7  1  0  0  0  0
  5 42  1  0  0  0  0
  6 43  1  0  0  0  0
  6 44  1  0  0  0  0
  7  8  1  0  0  0  0
  8  9  1  0  0  0  0
  8 15  1  0  0  0  0
  8 45  1  0  0  0  0
  9 10  1  0  0  0  0
  9 14  2  0  0  0  0
 10 11  2  0  0  0  0
 10 46  1  0  0  0  0
 11 12  1  0  0  0  0
 11 47  1  0  0  0  0
 12 13  2  0  0  0  0
 12 48  1  0  0  0  0
 13 14  1  0  0  0  0
 13 49  1  0  0  0  0
 14 50  1  0  0  0  0
 15 16  1  0  0  0  0
 15 20  2  0  0  0  0
 16 17  2  0  0  0  0
 16 51  1  0  0  0  0
 17 18  1  0  0  0  0
 17 52  1  0  0  0  0
 18 19  2  0  0  0  0
 18 53  1  0  0  0  0
 19 20  1  0  0  0  0
 19 54  1  0  0  0  0
 20 55  1  0  0  0  0
 21 22  1  0  0  0  0
 21 56  1  0  0  0  0
 21 57  1  0  0  0  0
 22 23  1  0  0  0  0
 22 58  1  0  0  0  0
 22 59  1  0  0  0  0
 23 24  1  0  0  0  0
 23 60  1  0  0  0  0
 23 61  1  0  0  0  0
 24 25  2  0  0  0  0
 24 26  1  0  0  0  0
 26 27  1  0  0  0  0
 26 31  2  0  0  0  0
 27 28  2  0  0  0  0
 27 62  1  0  0  0  0
 28 29  1  0  0  0  0
 28 63  1  0  0  0  0
 29 30  2  0  0  0  0
 29 32  1  0  0  0  0
 30 31  1  0  0  0  0
 30 64  1  0  0  0  0
 31 65  1  0  0  0  0
 32 33  1  0  0  0  0
 32 34  1  0  0  0  0
 32 35  1  0  0  0  0
 33 66  1  0  0  0  0
 33 67  1  0  0  0  0
 33 68  1  0  0  0  0
 34 69  1  0  0  0  0
 34 70  1  0  0  0  0
 34 71  1  0  0  0  0
 35 72  1  0  0  0  0
 35 73  1  0  0  0  0
 35 74  1  0  0  0  0
M  END
>  <UNIQUE_SMILES>
O=C(CCCN1CCC(OC(c2ccccc2)c2ccccc2)CC1)c1ccc(C(C)(C)C)cc1

>  <USER_SUPPLIED_SMILES>
O=C(CCCN1CCC(OC(c2ccccc2)c2ccccc2)CC1)c1ccc(C(C)(C)C)cc1

$$$$
C21H21FN4O3
  MOE2018           3D

 50 53  0  0  0  0  0  0  0  0999 V2000
    6.5700   -0.7190    0.8900 C   0  0  0  0  0  0  0  0  0  0  0  0
    5.4710   -0.0180    0.4010 C   0  0  0  0  0  0  0  0  0  0  0  0
    5.6560    1.0260   -0.5220 C   0  0  0  0  0  0  0  0  0  0  0  0
    6.9370    1.3510   -0.9410 C   0  0  0  0  0  0  0  0  0  0  0  0
    8.0190    0.6480   -0.4490 C   0  0  0  0  0  0  0  0  0  0  0  0
    7.8370   -0.3820    0.4620 C   0  0  0  0  0  0  0  0  0  0  0  0
    4.5430    1.7060   -0.9920 N   0  0  0  0  0  0  0  0  0  0  0  0
    3.3100    1.3750   -0.5730 C   0  0  0  0  0  0  0  0  0  0  0  0
    3.0810    0.3870    0.3070 N   0  0  0  0  0  0  0  0  0  0  0  0
    4.0960   -0.3380    0.8250 C   0  0  0  0  0  0  0  0  0  0  0  0
    3.8810   -1.2310    1.6220 O   0  0  0  0  0  0  0  0  0  0  0  0
    1.7050    0.0900    0.7120 C   0  0  0  0  0  0  0  0  0  0  0  0
    1.1090   -0.9550   -0.2330 C   0  0  0  0  0  0  0  0  0  0  0  0
   -0.2210   -1.3490    0.2490 N   0  0  0  0  0  0  0  0  0  0  0  0
   -0.7730   -2.2740   -0.7470 C   0  0  0  0  0  0  0  0  0  0  0  0
   -2.1580   -2.7490   -0.2940 C   0  0  0  0  0  0  0  0  0  0  0  0
   -3.0040   -1.5650   -0.0690 N   0  0  0  0  0  0  0  0  0  0  0  0
   -2.4540   -0.4730    0.7500 C   0  0  0  0  0  0  0  0  0  0  0  0
   -1.0510   -0.1400    0.2330 C   0  0  0  0  0  0  0  0  0  0  0  0
   -4.2410   -1.4840   -0.5970 C   0  0  0  0  0  0  0  0  0  0  0  0
   -4.6320   -2.3420   -1.3650 O   0  0  0  0  0  0  0  0  0  0  0  0
   -5.1230   -0.3540   -0.2420 C   0  0  0  0  0  0  0  0  0  0  0  0
   -5.8590    0.2990   -1.2330 C   0  0  0  0  0  0  0  0  0  0  0  0
   -6.6800    1.3540   -0.8960 C   0  0  0  0  0  0  0  0  0  0  0  0
   -6.7770    1.7660    0.4250 C   0  0  0  0  0  0  0  0  0  0  0  0
   -6.0480    1.1220    1.4120 C   0  0  0  0  0  0  0  0  0  0  0  0
   -5.2280    0.0620    1.0880 C   0  0  0  0  0  0  0  0  0  0  0  0
   -7.5830    2.8000    0.7490 F   0  0  0  0  0  0  0  0  0  0  0  0
    2.3600    1.9960   -1.0100 O   0  0  0  0  0  0  0  0  0  0  0  0
    6.4330   -1.5190    1.6040 H   0  0  0  0  0  0  0  0  0  0  0  0
    7.0880    2.1510   -1.6510 H   0  0  0  0  0  0  0  0  0  0  0  0
    9.0160    0.9020   -0.7760 H   0  0  0  0  0  0  0  0  0  0  0  0
    8.6930   -0.9220    0.8380 H   0  0  0  0  0  0  0  0  0  0  0  0
    4.6550    2.4290   -1.6300 H   0  0  0  0  0  0  0  0  0  0  0  0
    1.7030   -0.2980    1.7310 H   0  0  0  0  0  0  0  0  0  0  0  0
    1.1090    1.0010    0.6690 H   0  0  0  0  0  0  0  0  0  0  0  0
    1.0220   -0.5320   -1.2340 H   0  0  0  0  0  0  0  0  0  0  0  0
    1.7590   -1.8300   -0.2640 H   0  0  0  0  0  0  0  0  0  0  0  0
   -0.8600   -1.7650   -1.7070 H   0  0  0  0  0  0  0  0  0  0  0  0
   -0.1110   -3.1340   -0.8500 H   0  0  0  0  0  0  0  0  0  0  0  0
   -2.6020   -3.3750   -1.0680 H   0  0  0  0  0  0  0  0  0  0  0  0
   -2.0670   -3.3160    0.6320 H   0  0  0  0  0  0  0  0  0  0  0  0
   -3.0940    0.4060    0.6670 H   0  0  0  0  0  0  0  0  0  0  0  0
   -2.3960   -0.7890    1.7920 H   0  0  0  0  0  0  0  0  0  0  0  0
   -0.6000    0.6190    0.8720 H   0  0  0  0  0  0  0  0  0  0  0  0
   -1.1210    0.2390   -0.7870 H   0  0  0  0  0  0  0  0  0  0  0  0
   -5.7840   -0.0210   -2.2610 H   0  0  0  0  0  0  0  0  0  0  0  0
   -7.2500    1.8600   -1.6610 H   0  0  0  0  0  0  0  0  0  0  0  0
   -6.1260    1.4480    2.4390 H   0  0  0  0  0  0  0  0  0  0  0  0
   -4.6610   -0.4390    1.8580 H   0  0  0  0  0  0  0  0  0  0  0  0
  1  2  1  0  0  0  0
  1  6  2  0  0  0  0
  1 30  1  0  0  0  0
  2  3  2  0  0  0  0
  2 10  1  0  0  0  0
  3  4  1  0  0  0  0
  3  7  1  0  0  0  0
  4  5  2  0  0  0  0
  4 31  1  0  0  0  0
  5  6  1  0  0  0  0
  5 32  1  0  0  0  0
  6 33  1  0  0  0  0
  7  8  1  0  0  0  0
  7 34  1  0  0  0  0
  8  9  1  0  0  0  0
  8 29  2  0  0  0  0
  9 10  1  0  0  0  0
  9 12  1  0  0  0  0
 10 11  2  0  0  0  0
 12 13  1  0  0  0  0
 12 35  1  0  0  0  0
 12 36  1  0  0  0  0
 13 14  1  0  0  0  0
 13 37  1  0  0  0  0
 13 38  1  0  0  0  0
 14 15  1  0  0  0  0
 14 19  1  0  0  0  0
 15 16  1  0  0  0  0
 15 39  1  0  0  0  0
 15 40  1  0  0  0  0
 16 17  1  0  0  0  0
 16 41  1  0  0  0  0
 16 42  1  0  0  0  0
 17 18  1  0  0  0  0
 17 20  1  0  0  0  0
 18 19  1  0  0  0  0
 18 43  1  0  0  0  0
 18 44  1  0  0  0  0
 19 45  1  0  0  0  0
 19 46  1  0  0  0  0
 20 21  2  0  0  0  0
 20 22  1  0  0  0  0
 22 23  1  0  0  0  0
 22 27  2  0  0  0  0
 23 24  2  0  0  0  0
 23 47  1  0  0  0  0
 24 25  1  0  0  0  0
 24 48  1  0  0  0  0
 25 26  2  0  0  0  0
 25 28  1  0  0  0  0
 26 27  1  0  0  0  0
 26 49  1  0  0  0  0
 27 50  1  0  0  0  0
M  END
>  <UNIQUE_SMILES>
Fc1ccc(C(=O)N2CCN(CCN3C(=O)Nc4c(C3=O)cccc4)CC2)cc1

>  <USER_SUPPLIED_SMILES>
Fc1ccc(C(=O)N2CCN(CCN3C(=O)Nc4c(C3=O)cccc4)CC2)cc1

$$$$
C18H20BrN3O2
  MOE2018           3D

 44 46  0  0  0  0  0  0  0  0999 V2000
    5.3290   -2.2650    0.0990 Br  0  0  0  0  0  0  0  0  0  0  0  0
    4.8490   -0.4630   -0.2160 C   0  0  0  0  0  0  0  0  0  0  0  0
    5.7600    0.4040   -0.7950 C   0  0  0  0  0  0  0  0  0  0  0  0
    5.4170    1.7230   -1.0280 C   0  0  0  0  0  0  0  0  0  0  0  0
    4.1620    2.1840   -0.6850 C   0  0  0  0  0  0  0  0  0  0  0  0
    3.2390    1.3160   -0.1010 C   0  0  0  0  0  0  0  0  0  0  0  0
    3.5890   -0.0160    0.1260 C   0  0  0  0  0  0  0  0  0  0  0  0
    1.8930    1.8030    0.2700 C   0  0  0  0  0  0  0  0  0  0  0  0
    0.7020    1.1270    0.1240 N   0  0  0  0  0  0  0  0  0  0  0  0
   -0.2740    1.9370    0.5880 C   0  0  0  0  0  0  0  0  0  0  0  0
    0.2620    3.0540    1.0010 N   0  0  0  0  0  0  0  0  0  0  0  0
    1.5870    3.0060    0.8270 C   0  0  0  0  0  0  0  0  0  0  0  0
   -1.7430    1.6050    0.6230 C   0  0  0  0  0  0  0  0  0  0  0  0
   -2.3740    1.9420   -0.7300 C   0  0  0  0  0  0  0  0  0  0  0  0
   -3.8660    1.6050   -0.6950 C   0  0  0  0  0  0  0  0  0  0  0  0
   -4.0460    0.1140   -0.4060 C   0  0  0  0  0  0  0  0  0  0  0  0
   -3.4150   -0.2240    0.9460 C   0  0  0  0  0  0  0  0  0  0  0  0
   -1.9230    0.1130    0.9110 C   0  0  0  0  0  0  0  0  0  0  0  0
   -5.5160   -0.2180   -0.3710 C   0  0  0  0  0  0  0  0  0  0  0  0
   -6.3380    0.6520   -0.5590 O   0  0  0  0  0  0  0  0  0  0  0  0
   -5.9150   -1.4830   -0.1320 N   0  0  0  0  0  0  0  0  0  0  0  0
   -7.2300   -1.7790   -0.1010 C   0  0  0  0  0  0  0  0  0  0  0  0
   -8.0520   -0.9090   -0.2880 O   0  0  0  0  0  0  0  0  0  0  0  0
   -7.6770   -3.1930    0.1670 C   0  0  0  0  0  0  0  0  0  0  0  0
    6.7440    0.0480   -1.0660 H   0  0  0  0  0  0  0  0  0  0  0  0
    6.1320    2.3940   -1.4800 H   0  0  0  0  0  0  0  0  0  0  0  0
    3.8960    3.2140   -0.8660 H   0  0  0  0  0  0  0  0  0  0  0  0
    2.8790   -0.6930    0.5780 H   0  0  0  0  0  0  0  0  0  0  0  0
    2.2900    3.7870    1.0780 H   0  0  0  0  0  0  0  0  0  0  0  0
   -2.2290    2.1880    1.4060 H   0  0  0  0  0  0  0  0  0  0  0  0
   -2.2470    3.0050   -0.9360 H   0  0  0  0  0  0  0  0  0  0  0  0
   -1.8890    1.3600   -1.5130 H   0  0  0  0  0  0  0  0  0  0  0  0
   -4.3520    2.1880    0.0880 H   0  0  0  0  0  0  0  0  0  0  0  0
   -4.3160    1.8460   -1.6580 H   0  0  0  0  0  0  0  0  0  0  0  0
   -3.5600   -0.4690   -1.1890 H   0  0  0  0  0  0  0  0  0  0  0  0
   -3.9000    0.3590    1.7290 H   0  0  0  0  0  0  0  0  0  0  0  0
   -3.5430   -1.2860    1.1520 H   0  0  0  0  0  0  0  0  0  0  0  0
   -1.4370   -0.4690    0.1280 H   0  0  0  0  0  0  0  0  0  0  0  0
   -1.4730   -0.1270    1.8750 H   0  0  0  0  0  0  0  0  0  0  0  0
   -5.2570   -2.1790    0.0180 H   0  0  0  0  0  0  0  0  0  0  0  0
   -7.8060   -3.3370    1.2400 H   0  0  0  0  0  0  0  0  0  0  0  0
   -8.6240   -3.3770   -0.3400 H   0  0  0  0  0  0  0  0  0  0  0  0
   -6.9240   -3.8890   -0.2050 H   0  0  0  0  0  0  0  0  0  0  0  0
    0.5870    0.2360   -0.2430 H   0  0  0  0  0  0  0  0  0  0  0  0
  1  2  1  0  0  0  0
  2  3  1  0  0  0  0
  2  7  2  0  0  0  0
  3  4  2  0  0  0  0
  3 25  1  0  0  0  0
  4  5  1  0  0  0  0
  4 26  1  0  0  0  0
  5  6  2  0  0  0  0
  5 27  1  0  0  0  0
  6  7  1  0  0  0  0
  6  8  1  0  0  0  0
  7 28  1  0  0  0  0
  8  9  1  0  0  0  0
  8 12  2  0  0  0  0
  9 10  1  0  0  0  0
  9 44  1  0  0  0  0
 10 11  2  0  0  0  0
 10 13  1  0  0  0  0
 11 12  1  0  0  0  0
 12 29  1  0  0  0  0
 13 14  1  0  0  0  0
 13 18  1  0  0  0  0
 13 30  1  0  0  0  0
 14 15  1  0  0  0  0
 14 31  1  0  0  0  0
 14 32  1  0  0  0  0
 15 16  1  0  0  0  0
 15 33  1  0  0  0  0
 15 34  1  0  0  0  0
 16 17  1  0  0  0  0
 16 19  1  0  0  0  0
 16 35  1  0  0  0  0
 17 18  1  0  0  0  0
 17 36  1  0  0  0  0
 17 37  1  0  0  0  0
 18 38  1  0  0  0  0
 18 39  1  0  0  0  0
 19 20  2  0  0  0  0
 19 21  1  0  0  0  0
 21 22  1  0  0  0  0
 21 40  1  0  0  0  0
 22 23  2  0  0  0  0
 22 24  1  0  0  0  0
 24 41  1  0  0  0  0
 24 42  1  0  0  0  0
 24 43  1  0  0  0  0
M  END
>  <UNIQUE_SMILES>
Brc1cc(-c2[nH]c(C3CCC(C(=O)NC(=O)C)CC3)nc2)ccc1

>  <USER_SUPPLIED_SMILES>
Brc1cc(-c2nc(C3CCC(C(=O)NC(=O)C)CC3)[nH]c2)ccc1

$$$$
C25H24N4O2
  MOE2018           3D

 55 59  0  0  0  0  0  0  0  0999 V2000
    0.7010   -4.1760   -1.9310 C   0  0  0  0  0  0  0  0  0  0  0  0
   -0.2400   -3.4040   -1.2850 C   0  0  0  0  0  0  0  0  0  0  0  0
    0.1700   -2.4560   -0.3510 C   0  0  0  0  0  0  0  0  0  0  0  0
    1.5360   -2.2880   -0.0710 C   0  0  0  0  0  0  0  0  0  0  0  0
    2.4700   -3.0760   -0.7340 C   0  0  0  0  0  0  0  0  0  0  0  0
    2.0510   -4.0110   -1.6560 C   0  0  0  0  0  0  0  0  0  0  0  0
    1.6460   -1.2930    0.8790 N   0  0  0  0  0  0  0  0  0  0  0  0
    0.4130   -0.8230    1.2140 C   0  0  0  0  0  0  0  0  0  0  0  0
   -0.5420   -1.4870    0.5020 C   0  0  0  0  0  0  0  0  0  0  0  0
   -1.9970   -1.2770    0.5700 C   0  0  0  0  0  0  0  0  0  0  0  0
   -2.7150   -0.2170    0.0290 C   0  0  0  0  0  0  0  0  0  0  0  0
   -4.1320   -0.4660    0.3690 C   0  0  0  0  0  0  0  0  0  0  0  0
   -4.2110   -1.6110    1.0680 N   0  0  0  0  0  0  0  0  0  0  0  0
   -2.9920   -2.1540    1.2230 C   0  0  0  0  0  0  0  0  0  0  0  0
   -2.7460   -3.1890    1.8100 O   0  0  0  0  0  0  0  0  0  0  0  0
   -5.0680    0.2460    0.0670 O   0  0  0  0  0  0  0  0  0  0  0  0
   -2.1740    0.9240   -0.7280 C   0  0  0  0  0  0  0  0  0  0  0  0
   -1.7330    0.9110   -2.0190 C   0  0  0  0  0  0  0  0  0  0  0  0
   -1.3060    2.1550   -2.3700 N   0  0  0  0  0  0  0  0  0  0  0  0
   -1.4550    3.0280   -1.3130 C   0  0  0  0  0  0  0  0  0  0  0  0
   -2.0070    2.3050   -0.2420 C   0  0  0  0  0  0  0  0  0  0  0  0
   -2.2700    2.9420    0.9690 C   0  0  0  0  0  0  0  0  0  0  0  0
   -1.9840    4.2820    1.1100 C   0  0  0  0  0  0  0  0  0  0  0  0
   -1.4390    4.9980    0.0540 C   0  0  0  0  0  0  0  0  0  0  0  0
   -1.1780    4.3820   -1.1510 C   0  0  0  0  0  0  0  0  0  0  0  0
    2.9080   -0.8130    1.4460 C   0  0  0  0  0  0  0  0  0  0  0  0
    3.5040    0.2580    0.5300 C   0  0  0  0  0  0  0  0  0  0  0  0
    4.8220    0.7600    1.1230 C   0  0  0  0  0  0  0  0  0  0  0  0
    5.3940    1.7890    0.2430 N   0  0  0  0  0  0  0  0  0  0  0  0
    6.5130    2.3960    0.9760 C   0  0  0  0  0  0  0  0  0  0  0  0
    5.9760    1.0840   -0.9070 C   0  0  0  0  0  0  0  0  0  0  0  0
    0.3860   -4.9160   -2.6530 H   0  0  0  0  0  0  0  0  0  0  0  0
   -1.2900   -3.5340   -1.5020 H   0  0  0  0  0  0  0  0  0  0  0  0
    3.5240   -2.9560   -0.5280 H   0  0  0  0  0  0  0  0  0  0  0  0
    2.7800   -4.6220   -2.1680 H   0  0  0  0  0  0  0  0  0  0  0  0
    0.2200   -0.0420    1.9350 H   0  0  0  0  0  0  0  0  0  0  0  0
   -5.0340   -1.9940    1.4080 H   0  0  0  0  0  0  0  0  0  0  0  0
   -1.7240    0.0450   -2.6640 H   0  0  0  0  0  0  0  0  0  0  0  0
   -2.6940    2.3880    1.7920 H   0  0  0  0  0  0  0  0  0  0  0  0
   -2.1860    4.7780    2.0480 H   0  0  0  0  0  0  0  0  0  0  0  0
   -1.2200    6.0480    0.1760 H   0  0  0  0  0  0  0  0  0  0  0  0
   -0.7540    4.9480   -1.9670 H   0  0  0  0  0  0  0  0  0  0  0  0
    2.7240   -0.3860    2.4320 H   0  0  0  0  0  0  0  0  0  0  0  0
    3.6060   -1.6450    1.5350 H   0  0  0  0  0  0  0  0  0  0  0  0
    3.6870   -0.1680   -0.4560 H   0  0  0  0  0  0  0  0  0  0  0  0
    2.8050    1.0900    0.4420 H   0  0  0  0  0  0  0  0  0  0  0  0
    4.6380    1.1870    2.1090 H   0  0  0  0  0  0  0  0  0  0  0  0
    5.5200   -0.0720    1.2110 H   0  0  0  0  0  0  0  0  0  0  0  0
    7.2520    1.6300    1.2100 H   0  0  0  0  0  0  0  0  0  0  0  0
    6.9720    3.1700    0.3610 H   0  0  0  0  0  0  0  0  0  0  0  0
    6.1430    2.8390    1.9010 H   0  0  0  0  0  0  0  0  0  0  0  0
    6.4150    1.8090   -1.5930 H   0  0  0  0  0  0  0  0  0  0  0  0
    6.7480    0.3980   -0.5600 H   0  0  0  0  0  0  0  0  0  0  0  0
    5.1960    0.5240   -1.4220 H   0  0  0  0  0  0  0  0  0  0  0  0
   -0.9480    2.3930   -3.2390 H   0  0  0  0  0  0  0  0  0  0  0  0
  1  2  1  0  0  0  0
  1  6  2  0  0  0  0
  1 32  1  0  0  0  0
  2  3  2  0  0  0  0
  2 33  1  0  0  0  0
  3  4  1  0  0  0  0
  3  9  1  0  0  0  0
  4  5  2  0  0  0  0
  4  7  1  0  0  0  0
  5  6  1  0  0  0  0
  5 34  1  0  0  0  0
  6 35  1  0  0  0  0
  7  8  1  0  0  0  0
  7 26  1  0  0  0  0
  8  9  2  0  0  0  0
  8 36  1  0  0  0  0
  9 10  1  0  0  0  0
 10 11  2  0  0  0  0
 10 14  1  0  0  0  0
 11 12  1  0  0  0  0
 11 17  1  0  0  0  0
 12 13  1  0  0  0  0
 12 16  2  0  0  0  0
 13 14  1  0  0  0  0
 13 37  1  0  0  0  0
 14 15  2  0  0  0  0
 17 18  2  0  0  0  0
 17 21  1  0  0  0  0
 18 19  1  0  0  0  0
 18 38  1  0  0  0  0
 19 20  1  0  0  0  0
 19 55  1  0  0  0  0
 20 21  1  0  0  0  0
 20 25  2  0  0  0  0
 21 22  2  0  0  0  0
 22 23  1  0  0  0  0
 22 39  1  0  0  0  0
 23 24  2  0  0  0  0
 23 40  1  0  0  0  0
 24 25  1  0  0  0  0
 24 41  1  0  0  0  0
 25 42  1  0  0  0  0
 26 27  1  0  0  0  0
 26 43  1  0  0  0  0
 26 44  1  0  0  0  0
 27 28  1  0  0  0  0
 27 45  1  0  0  0  0
 27 46  1  0  0  0  0
 28 29  1  0  0  0  0
 28 47  1  0  0  0  0
 28 48  1  0  0  0  0
 29 30  1  0  0  0  0
 29 31  1  0  0  0  0
 30 49  1  0  0  0  0
 30 50  1  0  0  0  0
 30 51  1  0  0  0  0
 31 52  1  0  0  0  0
 31 53  1  0  0  0  0
 31 54  1  0  0  0  0
M  END
>  <UNIQUE_SMILES>
O=C1C(c2c3c(n(CCCN(C)C)c2)cccc3)=C(c2c3c([nH]c2)cccc3)C(=O)N1

>  <USER_SUPPLIED_SMILES>
O=C1C(c2c3c(n(CCCN(C)C)c2)cccc3)=C(c2c3c([nH]c2)cccc3)C(=O)N1

$$$$
C28H29F2N3O
  MOE2018           3D

 63 67  0  0  0  0  0  0  0  0999 V2000
    5.2580   -0.0100   -0.0260 N   0  0  0  0  0  0  0  0  0  0  0  0
    3.9740    0.6380   -0.3050 C   0  0  0  0  0  0  0  0  0  0  0  0
    3.3910    0.0800   -1.6070 C   0  0  0  0  0  0  0  0  0  0  0  0
    2.0000    0.6770   -1.8320 C   0  0  0  0  0  0  0  0  0  0  0  0
    1.1120    0.2960   -0.7290 N   0  0  0  0  0  0  0  0  0  0  0  0
    1.6260    0.9360    0.4860 C   0  0  0  0  0  0  0  0  0  0  0  0
    2.9960    0.3540    0.8390 C   0  0  0  0  0  0  0  0  0  0  0  0
   -0.1940    0.9060   -1.0080 C   0  0  0  0  0  0  0  0  0  0  0  0
   -1.2350    0.3510   -0.0340 C   0  0  0  0  0  0  0  0  0  0  0  0
   -2.5960    0.9870   -0.3250 C   0  0  0  0  0  0  0  0  0  0  0  0
   -3.6380    0.4310    0.6480 C   0  0  0  0  0  0  0  0  0  0  0  0
   -4.9480    1.1460    0.4440 C   0  0  0  0  0  0  0  0  0  0  0  0
   -5.6010    1.7140    1.5220 C   0  0  0  0  0  0  0  0  0  0  0  0
   -6.8030    2.3700    1.3350 C   0  0  0  0  0  0  0  0  0  0  0  0
   -7.3530    2.4590    0.0680 C   0  0  0  0  0  0  0  0  0  0  0  0
   -6.6990    1.8900   -1.0110 C   0  0  0  0  0  0  0  0  0  0  0  0
   -5.4940    1.2380   -0.8230 C   0  0  0  0  0  0  0  0  0  0  0  0
   -8.5280    3.1000   -0.1160 F   0  0  0  0  0  0  0  0  0  0  0  0
   -3.8250   -1.0430    0.3960 C   0  0  0  0  0  0  0  0  0  0  0  0
   -3.7240   -1.9400    1.4430 C   0  0  0  0  0  0  0  0  0  0  0  0
   -3.8960   -3.2920    1.2130 C   0  0  0  0  0  0  0  0  0  0  0  0
   -4.1690   -3.7470   -0.0660 C   0  0  0  0  0  0  0  0  0  0  0  0
   -4.2690   -2.8470   -1.1130 C   0  0  0  0  0  0  0  0  0  0  0  0
   -4.1020   -1.4950   -0.8800 C   0  0  0  0  0  0  0  0  0  0  0  0
   -4.3360   -5.0690   -0.2910 F   0  0  0  0  0  0  0  0  0  0  0  0
    6.4870    0.6340    0.0950 C   0  0  0  0  0  0  0  0  0  0  0  0
    6.8790    1.9610    0.0030 C   0  0  0  0  0  0  0  0  0  0  0  0
    8.2070    2.2990    0.1760 C   0  0  0  0  0  0  0  0  0  0  0  0
    9.1480    1.3190    0.4400 C   0  0  0  0  0  0  0  0  0  0  0  0
    8.7670   -0.0050    0.5320 C   0  0  0  0  0  0  0  0  0  0  0  0
    7.4360   -0.3540    0.3610 C   0  0  0  0  0  0  0  0  0  0  0  0
    6.7550   -1.5690    0.3940 N   0  0  0  0  0  0  0  0  0  0  0  0
    5.4500   -1.3290    0.1650 C   0  0  0  0  0  0  0  0  0  0  0  0
    4.5780   -2.1770    0.1260 O   0  0  0  0  0  0  0  0  0  0  0  0
    4.1220    1.7130   -0.4030 H   0  0  0  0  0  0  0  0  0  0  0  0
    4.0410    0.3460   -2.4410 H   0  0  0  0  0  0  0  0  0  0  0  0
    3.3140   -1.0050   -1.5360 H   0  0  0  0  0  0  0  0  0  0  0  0
    2.0750    1.7630   -1.8780 H   0  0  0  0  0  0  0  0  0  0  0  0
    1.5930    0.3020   -2.7710 H   0  0  0  0  0  0  0  0  0  0  0  0
    1.7210    2.0090    0.3180 H   0  0  0  0  0  0  0  0  0  0  0  0
    0.9340    0.7600    1.3100 H   0  0  0  0  0  0  0  0  0  0  0  0
    2.9080   -0.7230    0.9840 H   0  0  0  0  0  0  0  0  0  0  0  0
    3.3640    0.8160    1.7550 H   0  0  0  0  0  0  0  0  0  0  0  0
   -0.1230    1.9870   -0.8860 H   0  0  0  0  0  0  0  0  0  0  0  0
   -0.4920    0.6740   -2.0300 H   0  0  0  0  0  0  0  0  0  0  0  0
   -1.3060   -0.7300   -0.1560 H   0  0  0  0  0  0  0  0  0  0  0  0
   -0.9370    0.5830    0.9880 H   0  0  0  0  0  0  0  0  0  0  0  0
   -2.5250    2.0680   -0.2040 H   0  0  0  0  0  0  0  0  0  0  0  0
   -2.8940    0.7550   -1.3480 H   0  0  0  0  0  0  0  0  0  0  0  0
   -3.2960    0.5850    1.6720 H   0  0  0  0  0  0  0  0  0  0  0  0
   -5.1720    1.6450    2.5100 H   0  0  0  0  0  0  0  0  0  0  0  0
   -7.3130    2.8140    2.1780 H   0  0  0  0  0  0  0  0  0  0  0  0
   -7.1270    1.9580   -2.0000 H   0  0  0  0  0  0  0  0  0  0  0  0
   -4.9840    0.7940   -1.6650 H   0  0  0  0  0  0  0  0  0  0  0  0
   -3.5100   -1.5850    2.4400 H   0  0  0  0  0  0  0  0  0  0  0  0
   -3.8160   -3.9930    2.0310 H   0  0  0  0  0  0  0  0  0  0  0  0
   -4.4820   -3.2010   -2.1110 H   0  0  0  0  0  0  0  0  0  0  0  0
   -4.1810   -0.7930   -1.6970 H   0  0  0  0  0  0  0  0  0  0  0  0
    6.1470    2.7280   -0.2030 H   0  0  0  0  0  0  0  0  0  0  0  0
    8.5120    3.3330    0.1040 H   0  0  0  0  0  0  0  0  0  0  0  0
   10.1850    1.5910    0.5730 H   0  0  0  0  0  0  0  0  0  0  0  0
    9.5050   -0.7670    0.7380 H   0  0  0  0  0  0  0  0  0  0  0  0
    7.1520   -2.4380    0.5570 H   0  0  0  0  0  0  0  0  0  0  0  0
  1  2  1  0  0  0  0
  1 26  1  0  0  0  0
  1 33  1  0  0  0  0
  2  3  1  0  0  0  0
  2  7  1  0  0  0  0
  2 35  1  0  0  0  0
  3  4  1  0  0  0  0
  3 36  1  0  0  0  0
  3 37  1  0  0  0  0
  4  5  1  0  0  0  0
  4 38  1  0  0  0  0
  4 39  1  0  0  0  0
  5  6  1  0  0  0  0
  5  8  1  0  0  0  0
  6  7  1  0  0  0  0
  6 40  1  0  0  0  0
  6 41  1  0  0  0  0
  7 42  1  0  0  0  0
  7 43  1  0  0  0  0
  8  9  1  0  0  0  0
  8 44  1  0  0  0  0
  8 45  1  0  0  0  0
  9 10  1  0  0  0  0
  9 46  1  0  0  0  0
  9 47  1  0  0  0  0
 10 11  1  0  0  0  0
 10 48  1  0  0  0  0
 10 49  1  0  0  0  0
 11 12  1  0  0  0  0
 11 19  1  0  0  0  0
 11 50  1  0  0  0  0
 12 13  1  0  0  0  0
 12 17  2  0  0  0  0
 13 14  2  0  0  0  0
 13 51  1  0  0  0  0
 14 15  1  0  0  0  0
 14 52  1  0  0  0  0
 15 16  2  0  0  0  0
 15 18  1  0  0  0  0
 16 17  1  0  0  0  0
 16 53  1  0  0  0  0
 17 54  1  0  0  0  0
 19 20  1  0  0  0  0
 19 24  2  0  0  0  0
 20 21  2  0  0  0  0
 20 55  1  0  0  0  0
 21 22  1  0  0  0  0
 21 56  1  0  0  0  0
 22 23  2  0  0  0  0
 22 25  1  0  0  0  0
 23 24  1  0  0  0  0
 23 57  1  0  0  0  0
 24 58  1  0  0  0  0
 26 27  1  0  0  0  0
 26 31  2  0  0  0  0
 27 28  2  0  0  0  0
 27 59  1  0  0  0  0
 28 29  1  0  0  0  0
 28 60  1  0  0  0  0
 29 30  2  0  0  0  0
 29 61  1  0  0  0  0
 30 31  1  0  0  0  0
 30 62  1  0  0  0  0
 31 32  1  0  0  0  0
 32 33  1  0  0  0  0
 32 63  1  0  0  0  0
 33 34  2  0  0  0  0
M  END
>  <UNIQUE_SMILES>
Fc1ccc(C(CCCN2CCC(N3C(=O)Nc4c3cccc4)CC2)c2ccc(F)cc2)cc1

>  <USER_SUPPLIED_SMILES>
Fc1ccc(C(CCCN2CCC(N3C(=O)Nc4c3cccc4)CC2)c2ccc(F)cc2)cc1

$$$$
C24H26ClFN4O
  MOE2018           3D

 57 61  0  0  0  0  0  0  0  0999 V2000
   -3.3120   -5.2970    0.1370 Cl  0  0  0  0  0  0  0  0  0  0  0  0
   -3.3080   -3.5620    0.0990 C   0  0  0  0  0  0  0  0  0  0  0  0
   -2.1160   -2.8820   -0.0280 C   0  0  0  0  0  0  0  0  0  0  0  0
   -2.1180   -1.4860   -0.0580 C   0  0  0  0  0  0  0  0  0  0  0  0
   -1.0680   -0.4700   -0.1790 C   0  0  0  0  0  0  0  0  0  0  0  0
   -1.6750    0.7270   -0.1470 C   0  0  0  0  0  0  0  0  0  0  0  0
   -3.0280    0.5620   -0.0170 N   0  0  0  0  0  0  0  0  0  0  0  0
   -3.3320   -0.7830    0.0410 C   0  0  0  0  0  0  0  0  0  0  0  0
   -4.5230   -1.4890    0.1680 C   0  0  0  0  0  0  0  0  0  0  0  0
   -4.5060   -2.8660    0.1910 C   0  0  0  0  0  0  0  0  0  0  0  0
   -3.9640    1.6030    0.0490 C   0  0  0  0  0  0  0  0  0  0  0  0
   -3.7720    2.6560    0.9330 C   0  0  0  0  0  0  0  0  0  0  0  0
   -4.6960    3.6810    0.9960 C   0  0  0  0  0  0  0  0  0  0  0  0
   -5.8130    3.6580    0.1790 C   0  0  0  0  0  0  0  0  0  0  0  0
   -6.7150    4.6620    0.2420 F   0  0  0  0  0  0  0  0  0  0  0  0
   -6.0070    2.6090   -0.7040 C   0  0  0  0  0  0  0  0  0  0  0  0
   -5.0830    1.5850   -0.7740 C   0  0  0  0  0  0  0  0  0  0  0  0
    0.4110   -0.7220   -0.3120 C   0  0  0  0  0  0  0  0  0  0  0  0
    0.9170   -0.1240   -1.6280 C   0  0  0  0  0  0  0  0  0  0  0  0
    2.4370   -0.2830   -1.7020 C   0  0  0  0  0  0  0  0  0  0  0  0
    3.0660    0.4430   -0.5940 N   0  0  0  0  0  0  0  0  0  0  0  0
    2.6590   -0.2200    0.6490 C   0  0  0  0  0  0  0  0  0  0  0  0
    1.1520   -0.0580    0.8530 C   0  0  0  0  0  0  0  0  0  0  0  0
    4.5150    0.2400   -0.7260 C   0  0  0  0  0  0  0  0  0  0  0  0
    5.2500    1.1680    0.2440 C   0  0  0  0  0  0  0  0  0  0  0  0
    6.6950    0.9650    0.1130 N   0  0  0  0  0  0  0  0  0  0  0  0
    7.5780    1.6980   -0.8070 C   0  0  0  0  0  0  0  0  0  0  0  0
    8.9720    1.0980   -0.5370 C   0  0  0  0  0  0  0  0  0  0  0  0
    8.7260    0.0920    0.5070 N   0  0  0  0  0  0  0  0  0  0  0  0
    7.4230    0.0880    0.8170 C   0  0  0  0  0  0  0  0  0  0  0  0
    6.9430   -0.6510    1.6540 O   0  0  0  0  0  0  0  0  0  0  0  0
   -1.1860   -3.4260   -0.1030 H   0  0  0  0  0  0  0  0  0  0  0  0
   -1.1700    1.6790   -0.2150 H   0  0  0  0  0  0  0  0  0  0  0  0
   -5.4600   -0.9580    0.2460 H   0  0  0  0  0  0  0  0  0  0  0  0
   -5.4340   -3.4100    0.2900 H   0  0  0  0  0  0  0  0  0  0  0  0
   -2.9010    2.6740    1.5710 H   0  0  0  0  0  0  0  0  0  0  0  0
   -4.5460    4.5000    1.6840 H   0  0  0  0  0  0  0  0  0  0  0  0
   -6.8790    2.5930   -1.3400 H   0  0  0  0  0  0  0  0  0  0  0  0
   -5.2340    0.7660   -1.4620 H   0  0  0  0  0  0  0  0  0  0  0  0
    0.6010   -1.7960   -0.3020 H   0  0  0  0  0  0  0  0  0  0  0  0
    0.4550   -0.6450   -2.4670 H   0  0  0  0  0  0  0  0  0  0  0  0
    0.6590    0.9350   -1.6700 H   0  0  0  0  0  0  0  0  0  0  0  0
    2.6940   -1.3400   -1.6360 H   0  0  0  0  0  0  0  0  0  0  0  0
    2.7970    0.1180   -2.6500 H   0  0  0  0  0  0  0  0  0  0  0  0
    2.9050   -1.2810    0.5920 H   0  0  0  0  0  0  0  0  0  0  0  0
    3.1890    0.2280    1.4900 H   0  0  0  0  0  0  0  0  0  0  0  0
    0.9010    1.0020    0.8860 H   0  0  0  0  0  0  0  0  0  0  0  0
    0.8570   -0.5320    1.7890 H   0  0  0  0  0  0  0  0  0  0  0  0
    4.7600   -0.7960   -0.4930 H   0  0  0  0  0  0  0  0  0  0  0  0
    4.8220    0.4660   -1.7470 H   0  0  0  0  0  0  0  0  0  0  0  0
    5.0060    2.2040    0.0120 H   0  0  0  0  0  0  0  0  0  0  0  0
    4.9430    0.9420    1.2660 H   0  0  0  0  0  0  0  0  0  0  0  0
    7.2810    1.5240   -1.8420 H   0  0  0  0  0  0  0  0  0  0  0  0
    7.5690    2.7640   -0.5800 H   0  0  0  0  0  0  0  0  0  0  0  0
    9.3670    0.6280   -1.4370 H   0  0  0  0  0  0  0  0  0  0  0  0
    9.6550    1.8670   -0.1750 H   0  0  0  0  0  0  0  0  0  0  0  0
    9.4020   -0.4750    0.9100 H   0  0  0  0  0  0  0  0  0  0  0  0
  1  2  1  0  0  0  0
  2  3  1  0  0  0  0
  2 10  2  0  0  0  0
  3  4  2  0  0  0  0
  3 32  1  0  0  0  0
  4  5  1  0  0  0  0
  4  8  1  0  0  0  0
  5  6  2  0  0  0  0
  5 18  1  0  0  0  0
  6  7  1  0  0  0  0
  6 33  1  0  0  0  0
  7  8  1  0  0  0  0
  7 11  1  0  0  0  0
  8  9  2  0  0  0  0
  9 10  1  0  0  0  0
  9 34  1  0  0  0  0
 10 35  1  0  0  0  0
 11 12  1  0  0  0  0
 11 17  2  0  0  0  0
 12 13  2  0  0  0  0
 12 36  1  0  0  0  0
 13 14  1  0  0  0  0
 13 37  1  0  0  0  0
 14 15  1  0  0  0  0
 14 16  2  0  0  0  0
 16 17  1  0  0  0  0
 16 38  1  0  0  0  0
 17 39  1  0  0  0  0
 18 19  1  0  0  0  0
 18 23  1  0  0  0  0
 18 40  1  0  0  0  0
 19 20  1  0  0  0  0
 19 41  1  0  0  0  0
 19 42  1  0  0  0  0
 20 21  1  0  0  0  0
 20 43  1  0  0  0  0
 20 44  1  0  0  0  0
 21 22  1  0  0  0  0
 21 24  1  0  0  0  0
 22 23  1  0  0  0  0
 22 45  1  0  0  0  0
 22 46  1  0  0  0  0
 23 47  1  0  0  0  0
 23 48  1  0  0  0  0
 24 25  1  0  0  0  0
 24 49  1  0  0  0  0
 24 50  1  0  0  0  0
 25 26  1  0  0  0  0
 25 51  1  0  0  0  0
 25 52  1  0  0  0  0
 26 27  1  0  0  0  0
 26 30  1  0  0  0  0
 27 28  1  0  0  0  0
 27 53  1  0  0  0  0
 27 54  1  0  0  0  0
 28 29  1  0  0  0  0
 28 55  1  0  0  0  0
 28 56  1  0  0  0  0
 29 30  1  0  0  0  0
 29 57  1  0  0  0  0
 30 31  2  0  0  0  0
M  END
>  <UNIQUE_SMILES>
Clc1cc2c(C3CCN(CCN4C(=O)NCC4)CC3)cn(-c3ccc(F)cc3)c2cc1

>  <USER_SUPPLIED_SMILES>
Clc1cc2c(C3CCN(CCN4C(=O)NCC4)CC3)cn(-c3ccc(F)cc3)c2cc1

$$$$
C21H26N2S2
  MOE2018           3D

 51 54  0  0  1  0  0  0  0  0999 V2000
   -3.6200    1.3120    0.5980 S   0  0  0  0  0  0  0  0  0  0  0  0
   -2.8120   -0.2190    0.2940 C   0  0  0  0  0  0  0  0  0  0  0  0
   -1.4270   -0.3110    0.2220 C   0  0  0  0  0  0  0  0  0  0  0  0
   -0.6090    0.8070    0.3870 N   0  0  0  0  0  0  0  0  0  0  0  0
    0.7530    0.6090    0.8860 C   0  0  0  0  0  0  0  0  0  0  0  0
    1.7030    0.3930   -0.2930 C   0  0  0  0  0  0  0  0  0  0  0  0
    3.1440    0.3340    0.2160 C   0  0  3  0  0  0  0  0  0  0  0  0
    3.3090   -0.8740    1.1390 C   0  0  0  0  0  0  0  0  0  0  0  0
    4.7440   -0.9070    1.6760 C   0  0  0  0  0  0  0  0  0  0  0  0
    5.7170   -0.9060    0.4930 C   0  0  0  0  0  0  0  0  0  0  0  0
    5.4260    0.3050   -0.3970 C   0  0  0  0  0  0  0  0  0  0  0  0
    4.0600    0.2170   -0.9240 N   0  0  0  0  0  0  0  0  0  0  0  0
    3.8520    1.4080   -1.7570 C   0  0  0  0  0  0  0  0  0  0  0  0
   -1.0310    2.1040    0.0960 C   0  0  0  0  0  0  0  0  0  0  0  0
   -2.3710    2.4660    0.1550 C   0  0  0  0  0  0  0  0  0  0  0  0
   -2.7420    3.7740   -0.1420 C   0  0  0  0  0  0  0  0  0  0  0  0
   -1.7870    4.7080   -0.4960 C   0  0  0  0  0  0  0  0  0  0  0  0
   -0.4550    4.3460   -0.5560 C   0  0  0  0  0  0  0  0  0  0  0  0
   -0.0760    3.0500   -0.2600 C   0  0  0  0  0  0  0  0  0  0  0  0
   -0.8270   -1.5420   -0.0190 C   0  0  0  0  0  0  0  0  0  0  0  0
   -1.6060   -2.6780   -0.1900 C   0  0  0  0  0  0  0  0  0  0  0  0
   -0.8410   -4.2360   -0.4940 S   0  0  0  0  0  0  0  0  0  0  0  0
   -2.3120   -5.2900   -0.6240 C   0  0  0  0  0  0  0  0  0  0  0  0
   -2.9890   -2.5840   -0.1200 C   0  0  0  0  0  0  0  0  0  0  0  0
   -3.5860   -1.3620    0.1210 C   0  0  0  0  0  0  0  0  0  0  0  0
    1.0660    1.4900    1.4470 H   0  0  0  0  0  0  0  0  0  0  0  0
    0.7780   -0.2640    1.5380 H   0  0  0  0  0  0  0  0  0  0  0  0
    1.4560   -0.5450   -0.7910 H   0  0  0  0  0  0  0  0  0  0  0  0
    1.6000    1.2170   -0.9990 H   0  0  0  0  0  0  0  0  0  0  0  0
    3.3710    1.2460    0.7690 H   0  0  0  0  0  0  0  0  0  0  0  0
    2.6110   -0.7940    1.9720 H   0  0  0  0  0  0  0  0  0  0  0  0
    3.1090   -1.7890    0.5810 H   0  0  0  0  0  0  0  0  0  0  0  0
    4.9220   -0.0280    2.2950 H   0  0  0  0  0  0  0  0  0  0  0  0
    4.8920   -1.8090    2.2690 H   0  0  0  0  0  0  0  0  0  0  0  0
    6.7400   -0.8480    0.8630 H   0  0  0  0  0  0  0  0  0  0  0  0
    5.5890   -1.8210   -0.0850 H   0  0  0  0  0  0  0  0  0  0  0  0
    5.5310    1.2180    0.1890 H   0  0  0  0  0  0  0  0  0  0  0  0
    6.1340    0.3240   -1.2260 H   0  0  0  0  0  0  0  0  0  0  0  0
    4.6270    1.4570   -2.5220 H   0  0  0  0  0  0  0  0  0  0  0  0
    2.8740    1.3510   -2.2350 H   0  0  0  0  0  0  0  0  0  0  0  0
    3.9000    2.3010   -1.1340 H   0  0  0  0  0  0  0  0  0  0  0  0
   -3.7820    4.0610   -0.0970 H   0  0  0  0  0  0  0  0  0  0  0  0
   -2.0820    5.7210   -0.7260 H   0  0  0  0  0  0  0  0  0  0  0  0
    0.2910    5.0770   -0.8330 H   0  0  0  0  0  0  0  0  0  0  0  0
    0.9660    2.7710   -0.3080 H   0  0  0  0  0  0  0  0  0  0  0  0
    0.2490   -1.6140   -0.0740 H   0  0  0  0  0  0  0  0  0  0  0  0
   -2.0060   -6.3180   -0.8170 H   0  0  0  0  0  0  0  0  0  0  0  0
   -2.8730   -5.2460    0.3100 H   0  0  0  0  0  0  0  0  0  0  0  0
   -2.9400   -4.9370   -1.4420 H   0  0  0  0  0  0  0  0  0  0  0  0
   -3.5980   -3.4660   -0.2540 H   0  0  0  0  0  0  0  0  0  0  0  0
   -4.6630   -1.2930    0.1750 H   0  0  0  0  0  0  0  0  0  0  0  0
  1  2  1  0  0  0  0
  1 15  1  0  0  0  0
  2  3  1  0  0  0  0
  2 25  2  0  0  0  0
  3  4  1  0  0  0  0
  3 20  2  0  0  0  0
  4  5  1  0  0  0  0
  4 14  1  0  0  0  0
  5  6  1  0  0  0  0
  5 26  1  0  0  0  0
  5 27  1  0  0  0  0
  6  7  1  0  0  0  0
  6 28  1  0  0  0  0
  6 29  1  0  0  0  0
  7  8  1  0  0  0  0
  7 12  1  0  0  0  0
  7 30  1  0  0  0  0
  8  9  1  0  0  0  0
  8 31  1  0  0  0  0
  8 32  1  0  0  0  0
  9 10  1  0  0  0  0
  9 33  1  0  0  0  0
  9 34  1  0  0  0  0
 10 11  1  0  0  0  0
 10 35  1  0  0  0  0
 10 36  1  0  0  0  0
 11 12  1  0  0  0  0
 11 37  1  0  0  0  0
 11 38  1  0  0  0  0
 12 13  1  0  0  0  0
 13 39  1  0  0  0  0
 13 40  1  0  0  0  0
 13 41  1  0  0  0  0
 14 15  1  0  0  0  0
 14 19  2  0  0  0  0
 15 16  2  0  0  0  0
 16 17  1  0  0  0  0
 16 42  1  0  0  0  0
 17 18  2  0  0  0  0
 17 43  1  0  0  0  0
 18 19  1  0  0  0  0
 18 44  1  0  0  0  0
 19 45  1  0  0  0  0
 20 21  1  0  0  0  0
 20 46  1  0  0  0  0
 21 22  1  0  0  0  0
 21 24  2  0  0  0  0
 22 23  1  0  0  0  0
 23 47  1  0  0  0  0
 23 48  1  0  0  0  0
 23 49  1  0  0  0  0
 24 25  1  0  0  0  0
 24 50  1  0  0  0  0
 25 51  1  0  0  0  0
M  END
>  <UNIQUE_SMILES>
S(C)c1cc2N(CCC3N(C)CCCC3)c3c(Sc2cc1)cccc3

>  <USER_SUPPLIED_SMILES>
S(C)c1cc2N(CCC3N(C)CCCC3)c3c(Sc2cc1)cccc3

$$$$
C24H27ClN4O
  MOE2018           3D

 57 61  0  0  0  0  0  0  0  0999 V2000
    3.7280    3.2040   -0.9850 C   0  0  0  0  0  0  0  0  0  0  0  0
    4.0200    2.1950   -0.0770 C   0  0  0  0  0  0  0  0  0  0  0  0
    5.1090    2.3250    0.7760 C   0  0  0  0  0  0  0  0  0  0  0  0
    5.8980    3.4570    0.7180 C   0  0  0  0  0  0  0  0  0  0  0  0
    5.6050    4.4600   -0.1870 C   0  0  0  0  0  0  0  0  0  0  0  0
    4.5210    4.3340   -1.0370 C   0  0  0  0  0  0  0  0  0  0  0  0
    3.2180    1.0490   -0.0200 N   0  0  0  0  0  0  0  0  0  0  0  0
    1.8500    1.0480    0.0670 C   0  0  0  0  0  0  0  0  0  0  0  0
    1.3950   -0.2150    0.1020 C   0  0  0  0  0  0  0  0  0  0  0  0
    2.5640   -1.0950    0.0310 C   0  0  0  0  0  0  0  0  0  0  0  0
    3.6850   -0.2490   -0.0500 C   0  0  0  0  0  0  0  0  0  0  0  0
    4.9570   -0.8050   -0.1310 C   0  0  0  0  0  0  0  0  0  0  0  0
    5.1100   -2.1740   -0.1310 C   0  0  0  0  0  0  0  0  0  0  0  0
    4.0040   -3.0100   -0.0510 C   0  0  0  0  0  0  0  0  0  0  0  0
    2.7350   -2.4810    0.0260 C   0  0  0  0  0  0  0  0  0  0  0  0
    4.2220   -4.7330   -0.0540 Cl  0  0  0  0  0  0  0  0  0  0  0  0
   -0.0460   -0.6450    0.1960 C   0  0  0  0  0  0  0  0  0  0  0  0
   -0.6630   -0.0940    1.4850 C   0  0  0  0  0  0  0  0  0  0  0  0
   -2.1530   -0.4380    1.5170 C   0  0  0  0  0  0  0  0  0  0  0  0
   -2.8320    0.1880    0.3770 N   0  0  0  0  0  0  0  0  0  0  0  0
   -2.3070   -0.4380   -0.8410 C   0  0  0  0  0  0  0  0  0  0  0  0
   -0.8250   -0.0940   -1.0030 C   0  0  0  0  0  0  0  0  0  0  0  0
   -4.2480   -0.1890    0.4690 C   0  0  0  0  0  0  0  0  0  0  0  0
   -5.0600    0.6260   -0.5390 C   0  0  0  0  0  0  0  0  0  0  0  0
   -6.4730    0.2490   -0.4470 N   0  0  0  0  0  0  0  0  0  0  0  0
   -7.3790    0.8240    0.3540 C   0  0  0  0  0  0  0  0  0  0  0  0
   -8.6060    0.2970    0.2530 N   0  0  0  0  0  0  0  0  0  0  0  0
   -8.5860   -0.7880   -0.7400 C   0  0  0  0  0  0  0  0  0  0  0  0
   -7.1230   -0.8170   -1.2240 C   0  0  0  0  0  0  0  0  0  0  0  0
   -7.1120    1.7420    1.1060 O   0  0  0  0  0  0  0  0  0  0  0  0
    2.8850    3.1040   -1.6520 H   0  0  0  0  0  0  0  0  0  0  0  0
    5.3380    1.5420    1.4830 H   0  0  0  0  0  0  0  0  0  0  0  0
    6.7440    3.5590    1.3810 H   0  0  0  0  0  0  0  0  0  0  0  0
    6.2230    5.3450   -0.2300 H   0  0  0  0  0  0  0  0  0  0  0  0
    4.2950    5.1190   -1.7440 H   0  0  0  0  0  0  0  0  0  0  0  0
    1.2310    1.9320    0.1030 H   0  0  0  0  0  0  0  0  0  0  0  0
    5.8240   -0.1640   -0.1940 H   0  0  0  0  0  0  0  0  0  0  0  0
    6.1000   -2.6010   -0.1940 H   0  0  0  0  0  0  0  0  0  0  0  0
    1.8770   -3.1340    0.0880 H   0  0  0  0  0  0  0  0  0  0  0  0
   -0.1030   -1.7330    0.2010 H   0  0  0  0  0  0  0  0  0  0  0  0
   -0.1670   -0.5420    2.3460 H   0  0  0  0  0  0  0  0  0  0  0  0
   -0.5380    0.9890    1.5140 H   0  0  0  0  0  0  0  0  0  0  0  0
   -2.2770   -1.5190    1.4630 H   0  0  0  0  0  0  0  0  0  0  0  0
   -2.5900   -0.0700    2.4450 H   0  0  0  0  0  0  0  0  0  0  0  0
   -2.4220   -1.5200   -0.7710 H   0  0  0  0  0  0  0  0  0  0  0  0
   -2.8610   -0.0710   -1.7050 H   0  0  0  0  0  0  0  0  0  0  0  0
   -0.7060    0.9880   -1.0490 H   0  0  0  0  0  0  0  0  0  0  0  0
   -0.4450   -0.5420   -1.9210 H   0  0  0  0  0  0  0  0  0  0  0  0
   -4.3560   -1.2520    0.2490 H   0  0  0  0  0  0  0  0  0  0  0  0
   -4.6130    0.0120    1.4770 H   0  0  0  0  0  0  0  0  0  0  0  0
   -4.9520    1.6880   -0.3190 H   0  0  0  0  0  0  0  0  0  0  0  0
   -4.6960    0.4240   -1.5470 H   0  0  0  0  0  0  0  0  0  0  0  0
   -9.3850    0.5860    0.7540 H   0  0  0  0  0  0  0  0  0  0  0  0
   -8.8580   -1.7360   -0.2750 H   0  0  0  0  0  0  0  0  0  0  0  0
   -9.2550   -0.5610   -1.5690 H   0  0  0  0  0  0  0  0  0  0  0  0
   -7.0700   -0.6060   -2.2920 H   0  0  0  0  0  0  0  0  0  0  0  0
   -6.6650   -1.7800   -1.0000 H   0  0  0  0  0  0  0  0  0  0  0  0
  1  2  1  0  0  0  0
  1  6  2  0  0  0  0
  1 31  1  0  0  0  0
  2  3  2  0  0  0  0
  2  7  1  0  0  0  0
  3  4  1  0  0  0  0
  3 32  1  0  0  0  0
  4  5  2  0  0  0  0
  4 33  1  0  0  0  0
  5  6  1  0  0  0  0
  5 34  1  0  0  0  0
  6 35  1  0  0  0  0
  7  8  1  0  0  0  0
  7 11  1  0  0  0  0
  8  9  2  0  0  0  0
  8 36  1  0  0  0  0
  9 10  1  0  0  0  0
  9 17  1  0  0  0  0
 10 11  1  0  0  0  0
 10 15  2  0  0  0  0
 11 12  2  0  0  0  0
 12 13  1  0  0  0  0
 12 37  1  0  0  0  0
 13 14  2  0  0  0  0
 13 38  1  0  0  0  0
 14 15  1  0  0  0  0
 14 16  1  0  0  0  0
 15 39  1  0  0  0  0
 17 18  1  0  0  0  0
 17 22  1  0  0  0  0
 17 40  1  0  0  0  0
 18 19  1  0  0  0  0
 18 41  1  0  0  0  0
 18 42  1  0  0  0  0
 19 20  1  0  0  0  0
 19 43  1  0  0  0  0
 19 44  1  0  0  0  0
 20 21  1  0  0  0  0
 20 23  1  0  0  0  0
 21 22  1  0  0  0  0
 21 45  1  0  0  0  0
 21 46  1  0  0  0  0
 22 47  1  0  0  0  0
 22 48  1  0  0  0  0
 23 24  1  0  0  0  0
 23 49  1  0  0  0  0
 23 50  1  0  0  0  0
 24 25  1  0  0  0  0
 24 51  1  0  0  0  0
 24 52  1  0  0  0  0
 25 26  1  0  0  0  0
 25 29  1  0  0  0  0
 26 27  1  0  0  0  0
 26 30  2  0  0  0  0
 27 28  1  0  0  0  0
 27 53  1  0  0  0  0
 28 29  1  0  0  0  0
 28 54  1  0  0  0  0
 28 55  1  0  0  0  0
 29 56  1  0  0  0  0
 29 57  1  0  0  0  0
M  END
>  <UNIQUE_SMILES>
Clc1cc2c(C3CCN(CCN4C(=O)NCC4)CC3)cn(-c3ccccc3)c2cc1

>  <USER_SUPPLIED_SMILES>
Clc1cc2c(C3CCN(CCN4C(=O)NCC4)CC3)cn(-c3ccccc3)c2cc1

$$$$
C26H29ClN4O3
  MOE2018           3D

 63 67  0  0  0  0  0  0  0  0999 V2000
    3.4520    1.5990   -0.7950 C   0  0  0  0  0  0  0  0  0  0  0  0
    3.4550    0.5080    0.0690 C   0  0  0  0  0  0  0  0  0  0  0  0
    4.5240    0.3060    0.9360 C   0  0  0  0  0  0  0  0  0  0  0  0
    5.5840    1.1840    0.9410 C   0  0  0  0  0  0  0  0  0  0  0  0
    5.5840    2.2810    0.0740 C   0  0  0  0  0  0  0  0  0  0  0  0
    4.5080    2.4810   -0.7950 C   0  0  0  0  0  0  0  0  0  0  0  0
    6.7170    3.2250    0.0770 C   0  0  0  0  0  0  0  0  0  0  0  0
    7.6520    3.0500    0.8340 O   0  0  0  0  0  0  0  0  0  0  0  0
    6.7160    4.2820   -0.7590 O   0  0  0  0  0  0  0  0  0  0  0  0
    7.8320    5.2110   -0.7560 C   0  0  0  0  0  0  0  0  0  0  0  0
    2.3820   -0.3840    0.0670 N   0  0  0  0  0  0  0  0  0  0  0  0
    1.0600   -0.0290    0.1470 C   0  0  0  0  0  0  0  0  0  0  0  0
    0.2890   -1.1270    0.1200 C   0  0  0  0  0  0  0  0  0  0  0  0
    1.1860   -2.2800    0.0140 C   0  0  0  0  0  0  0  0  0  0  0  0
    2.4920   -1.7580   -0.0210 C   0  0  0  0  0  0  0  0  0  0  0  0
    3.5740   -2.6250   -0.1210 C   0  0  0  0  0  0  0  0  0  0  0  0
    3.3610   -3.9850   -0.1830 C   0  0  0  0  0  0  0  0  0  0  0  0
    2.0730   -4.5020   -0.1490 C   0  0  0  0  0  0  0  0  0  0  0  0
    0.9870   -3.6600   -0.0550 C   0  0  0  0  0  0  0  0  0  0  0  0
    1.8300   -6.2190   -0.2290 Cl  0  0  0  0  0  0  0  0  0  0  0  0
   -1.2160   -1.1660    0.1860 C   0  0  0  0  0  0  0  0  0  0  0  0
   -1.6880   -0.5290    1.4970 C   0  0  0  0  0  0  0  0  0  0  0  0
   -3.2170   -0.4690    1.5050 C   0  0  0  0  0  0  0  0  0  0  0  0
   -3.6870    0.3640    0.3920 N   0  0  0  0  0  0  0  0  0  0  0  0
   -3.3240   -0.3250   -0.8510 C   0  0  0  0  0  0  0  0  0  0  0  0
   -1.8020   -0.3770   -0.9890 C   0  0  0  0  0  0  0  0  0  0  0  0
   -5.1540    0.3690    0.4590 C   0  0  0  0  0  0  0  0  0  0  0  0
   -5.7060    1.4130   -0.5140 C   0  0  0  0  0  0  0  0  0  0  0  0
   -7.1690    1.4180   -0.4470 N   0  0  0  0  0  0  0  0  0  0  0  0
   -7.9060    2.1760    0.3760 C   0  0  0  0  0  0  0  0  0  0  0  0
   -9.2260    1.9960    0.2430 N   0  0  0  0  0  0  0  0  0  0  0  0
   -9.4750    0.9880   -0.7990 C   0  0  0  0  0  0  0  0  0  0  0  0
   -8.0630    0.5960   -1.2770 C   0  0  0  0  0  0  0  0  0  0  0  0
   -7.4200    2.9560    1.1710 O   0  0  0  0  0  0  0  0  0  0  0  0
    2.6220    1.7500   -1.4690 H   0  0  0  0  0  0  0  0  0  0  0  0
    4.5230   -0.5420    1.6050 H   0  0  0  0  0  0  0  0  0  0  0  0
    6.4140    1.0270    1.6140 H   0  0  0  0  0  0  0  0  0  0  0  0
    4.5050    3.3270   -1.4660 H   0  0  0  0  0  0  0  0  0  0  0  0
    7.6540    5.9950   -1.4920 H   0  0  0  0  0  0  0  0  0  0  0  0
    7.9290    5.6580    0.2340 H   0  0  0  0  0  0  0  0  0  0  0  0
    8.7490    4.6790   -1.0060 H   0  0  0  0  0  0  0  0  0  0  0  0
    0.6940    0.9840    0.2210 H   0  0  0  0  0  0  0  0  0  0  0  0
    4.5800   -2.2330   -0.1490 H   0  0  0  0  0  0  0  0  0  0  0  0
    4.2050   -4.6550   -0.2610 H   0  0  0  0  0  0  0  0  0  0  0  0
   -0.0140   -4.0660   -0.0280 H   0  0  0  0  0  0  0  0  0  0  0  0
   -1.5570   -2.2000    0.1390 H   0  0  0  0  0  0  0  0  0  0  0  0
   -1.3430   -1.1290    2.3380 H   0  0  0  0  0  0  0  0  0  0  0  0
   -1.2840    0.4800    1.5780 H   0  0  0  0  0  0  0  0  0  0  0  0
   -3.6200   -1.4760    1.3990 H   0  0  0  0  0  0  0  0  0  0  0  0
   -3.5580   -0.0400    2.4470 H   0  0  0  0  0  0  0  0  0  0  0  0
   -3.7210   -1.3400   -0.8330 H   0  0  0  0  0  0  0  0  0  0  0  0
   -3.7470    0.2130   -1.7000 H   0  0  0  0  0  0  0  0  0  0  0  0
   -1.4010    0.6370   -0.9830 H   0  0  0  0  0  0  0  0  0  0  0  0
   -1.5370   -0.8680   -1.9260 H   0  0  0  0  0  0  0  0  0  0  0  0
   -5.5340   -0.6170    0.1890 H   0  0  0  0  0  0  0  0  0  0  0  0
   -5.4710    0.6140    1.4730 H   0  0  0  0  0  0  0  0  0  0  0  0
   -5.3260    2.3980   -0.2440 H   0  0  0  0  0  0  0  0  0  0  0  0
   -5.3890    1.1670   -1.5280 H   0  0  0  0  0  0  0  0  0  0  0  0
   -9.9110    2.4570    0.7540 H   0  0  0  0  0  0  0  0  0  0  0  0
   -9.9940    0.1260   -0.3810 H   0  0  0  0  0  0  0  0  0  0  0  0
  -10.0470    1.4200   -1.6200 H   0  0  0  0  0  0  0  0  0  0  0  0
   -7.9380    0.8320   -2.3340 H   0  0  0  0  0  0  0  0  0  0  0  0
   -7.8780   -0.4620   -1.0960 H   0  0  0  0  0  0  0  0  0  0  0  0
  1  2  1  0  0  0  0
  1  6  2  0  0  0  0
  1 35  1  0  0  0  0
  2  3  2  0  0  0  0
  2 11  1  0  0  0  0
  3  4  1  0  0  0  0
  3 36  1  0  0  0  0
  4  5  2  0  0  0  0
  4 37  1  0  0  0  0
  5  6  1  0  0  0  0
  5  7  1  0  0  0  0
  6 38  1  0  0  0  0
  7  8  2  0  0  0  0
  7  9  1  0  0  0  0
  9 10  1  0  0  0  0
 10 39  1  0  0  0  0
 10 40  1  0  0  0  0
 10 41  1  0  0  0  0
 11 12  1  0  0  0  0
 11 15  1  0  0  0  0
 12 13  2  0  0  0  0
 12 42  1  0  0  0  0
 13 14  1  0  0  0  0
 13 21  1  0  0  0  0
 14 15  1  0  0  0  0
 14 19  2  0  0  0  0
 15 16  2  0  0  0  0
 16 17  1  0  0  0  0
 16 43  1  0  0  0  0
 17 18  2  0  0  0  0
 17 44  1  0  0  0  0
 18 19  1  0  0  0  0
 18 20  1  0  0  0  0
 19 45  1  0  0  0  0
 21 22  1  0  0  0  0
 21 26  1  0  0  0  0
 21 46  1  0  0  0  0
 22 23  1  0  0  0  0
 22 47  1  0  0  0  0
 22 48  1  0  0  0  0
 23 24  1  0  0  0  0
 23 49  1  0  0  0  0
 23 50  1  0  0  0  0
 24 25  1  0  0  0  0
 24 27  1  0  0  0  0
 25 26  1  0  0  0  0
 25 51  1  0  0  0  0
 25 52  1  0  0  0  0
 26 53  1  0  0  0  0
 26 54  1  0  0  0  0
 27 28  1  0  0  0  0
 27 55  1  0  0  0  0
 27 56  1  0  0  0  0
 28 29  1  0  0  0  0
 28 57  1  0  0  0  0
 28 58  1  0  0  0  0
 29 30  1  0  0  0  0
 29 33  1  0  0  0  0
 30 31  1  0  0  0  0
 30 34  2  0  0  0  0
 31 32  1  0  0  0  0
 31 59  1  0  0  0  0
 32 33  1  0  0  0  0
 32 60  1  0  0  0  0
 32 61  1  0  0  0  0
 33 62  1  0  0  0  0
 33 63  1  0  0  0  0
M  END
>  <UNIQUE_SMILES>
Clc1cc2c(C3CCN(CCN4C(=O)NCC4)CC3)cn(-c3ccc(C(=O)OC)cc3)c2cc1

>  <USER_SUPPLIED_SMILES>
Clc1cc2c(C3CCN(CCN4C(=O)NCC4)CC3)cn(-c3ccc(C(=O)OC)cc3)c2cc1

$$$$
C24H29FN4O
  MOE2018           3D

 59 63  0  0  1  0  0  0  0  0999 V2000
    4.9450    0.8150    1.2840 C   0  0  0  0  0  0  0  0  0  0  0  0
    4.6190    0.6050   -0.0490 C   0  0  0  0  0  0  0  0  0  0  0  0
    5.4760    1.0460   -1.0500 C   0  0  0  0  0  0  0  0  0  0  0  0
    6.6490    1.6940   -0.7160 C   0  0  0  0  0  0  0  0  0  0  0  0
    6.9720    1.9020    0.6140 C   0  0  0  0  0  0  0  0  0  0  0  0
    6.1200    1.4630    1.6130 C   0  0  0  0  0  0  0  0  0  0  0  0
    8.1210    2.5360    0.9380 F   0  0  0  0  0  0  0  0  0  0  0  0
    3.4310   -0.0520   -0.3850 N   0  0  0  0  0  0  0  0  0  0  0  0
    2.2940    0.5690   -1.0690 C   0  0  0  0  0  0  0  0  0  0  0  0
    1.2470   -0.5490   -1.2080 C   0  0  3  0  0  0  0  0  0  0  0  0
    1.8960   -1.7570   -0.5690 C   0  0  0  0  0  0  0  0  0  0  0  0
    3.1570   -1.3950   -0.1210 C   0  0  0  0  0  0  0  0  0  0  0  0
    3.9530   -2.3530    0.5090 C   0  0  0  0  0  0  0  0  0  0  0  0
    3.4880   -3.6390    0.6820 C   0  0  0  0  0  0  0  0  0  0  0  0
    2.2280   -3.9900    0.2320 C   0  0  0  0  0  0  0  0  0  0  0  0
    1.4350   -3.0480   -0.3970 C   0  0  0  0  0  0  0  0  0  0  0  0
   -0.0360   -0.1750   -0.4620 C   0  0  0  0  0  0  0  0  0  0  0  0
   -0.6100    1.1180   -1.0480 C   0  0  0  0  0  0  0  0  0  0  0  0
   -1.9500    1.4230   -0.3750 C   0  0  0  0  0  0  0  0  0  0  0  0
   -2.8980    0.3360   -0.6420 N   0  0  0  0  0  0  0  0  0  0  0  0
   -2.3840   -0.8640    0.0260 C   0  0  0  0  0  0  0  0  0  0  0  0
   -1.0680   -1.2950   -0.6240 C   0  0  0  0  0  0  0  0  0  0  0  0
   -4.1510    0.6930    0.0360 C   0  0  0  0  0  0  0  0  0  0  0  0
   -5.2590   -0.2680   -0.4010 C   0  0  0  0  0  0  0  0  0  0  0  0
   -6.5090    0.0880    0.2750 N   0  0  0  0  0  0  0  0  0  0  0  0
   -7.4260    0.9460   -0.1910 C   0  0  0  0  0  0  0  0  0  0  0  0
   -8.4840    1.1010    0.6170 N   0  0  0  0  0  0  0  0  0  0  0  0
   -8.3110    0.2550    1.8080 C   0  0  0  0  0  0  0  0  0  0  0  0
   -6.9580   -0.4440    1.5700 C   0  0  0  0  0  0  0  0  0  0  0  0
   -7.3100    1.5300   -1.2500 O   0  0  0  0  0  0  0  0  0  0  0  0
    4.2780    0.4770    2.0640 H   0  0  0  0  0  0  0  0  0  0  0  0
    5.2250    0.8830   -2.0870 H   0  0  0  0  0  0  0  0  0  0  0  0
    7.3160    2.0380   -1.4930 H   0  0  0  0  0  0  0  0  0  0  0  0
    6.3740    1.6270    2.6500 H   0  0  0  0  0  0  0  0  0  0  0  0
    1.8940    1.3890   -0.4720 H   0  0  0  0  0  0  0  0  0  0  0  0
    2.5950    0.9280   -2.0530 H   0  0  0  0  0  0  0  0  0  0  0  0
    1.0350   -0.7430   -2.2590 H   0  0  0  0  0  0  0  0  0  0  0  0
    4.9380   -2.0860    0.8630 H   0  0  0  0  0  0  0  0  0  0  0  0
    4.1090   -4.3760    1.1700 H   0  0  0  0  0  0  0  0  0  0  0  0
    1.8660   -4.9980    0.3680 H   0  0  0  0  0  0  0  0  0  0  0  0
    0.4510   -3.3200   -0.7490 H   0  0  0  0  0  0  0  0  0  0  0  0
    0.1860   -0.0310    0.5950 H   0  0  0  0  0  0  0  0  0  0  0  0
    0.0840    1.9400   -0.8660 H   0  0  0  0  0  0  0  0  0  0  0  0
   -0.7600    0.9980   -2.1210 H   0  0  0  0  0  0  0  0  0  0  0  0
   -1.8020    1.5200    0.7000 H   0  0  0  0  0  0  0  0  0  0  0  0
   -2.3500    2.3570   -0.7700 H   0  0  0  0  0  0  0  0  0  0  0  0
   -2.2130   -0.6470    1.0800 H   0  0  0  0  0  0  0  0  0  0  0  0
   -3.1130   -1.6690   -0.0640 H   0  0  0  0  0  0  0  0  0  0  0  0
   -1.2320   -1.4890   -1.6840 H   0  0  0  0  0  0  0  0  0  0  0  0
   -0.7020   -2.2010   -0.1400 H   0  0  0  0  0  0  0  0  0  0  0  0
   -4.0130    0.6220    1.1150 H   0  0  0  0  0  0  0  0  0  0  0  0
   -4.4300    1.7130   -0.2280 H   0  0  0  0  0  0  0  0  0  0  0  0
   -5.3960   -0.1970   -1.4800 H   0  0  0  0  0  0  0  0  0  0  0  0
   -4.9800   -1.2880   -0.1370 H   0  0  0  0  0  0  0  0  0  0  0  0
   -9.2430    1.6790    0.4440 H   0  0  0  0  0  0  0  0  0  0  0  0
   -8.2760    0.8670    2.7090 H   0  0  0  0  0  0  0  0  0  0  0  0
   -9.1120   -0.4810    1.8740 H   0  0  0  0  0  0  0  0  0  0  0  0
   -7.0900   -1.5250    1.5210 H   0  0  0  0  0  0  0  0  0  0  0  0
   -6.2480   -0.1800    2.3530 H   0  0  0  0  0  0  0  0  0  0  0  0
  1  2  1  0  0  0  0
  1  6  2  0  0  0  0
  1 31  1  0  0  0  0
  2  3  2  0  0  0  0
  2  8  1  0  0  0  0
  3  4  1  0  0  0  0
  3 32  1  0  0  0  0
  4  5  2  0  0  0  0
  4 33  1  0  0  0  0
  5  6  1  0  0  0  0
  5  7  1  0  0  0  0
  6 34  1  0  0  0  0
  8  9  1  0  0  0  0
  8 12  1  0  0  0  0
  9 10  1  0  0  0  0
  9 35  1  0  0  0  0
  9 36  1  0  0  0  0
 10 11  1  0  0  0  0
 10 17  1  0  0  0  0
 10 37  1  0  0  0  0
 11 12  1  0  0  0  0
 11 16  2  0  0  0  0
 12 13  2  0  0  0  0
 13 14  1  0  0  0  0
 13 38  1  0  0  0  0
 14 15  2  0  0  0  0
 14 39  1  0  0  0  0
 15 16  1  0  0  0  0
 15 40  1  0  0  0  0
 16 41  1  0  0  0  0
 17 18  1  0  0  0  0
 17 22  1  0  0  0  0
 17 42  1  0  0  0  0
 18 19  1  0  0  0  0
 18 43  1  0  0  0  0
 18 44  1  0  0  0  0
 19 20  1  0  0  0  0
 19 45  1  0  0  0  0
 19 46  1  0  0  0  0
 20 21  1  0  0  0  0
 20 23  1  0  0  0  0
 21 22  1  0  0  0  0
 21 47  1  0  0  0  0
 21 48  1  0  0  0  0
 22 49  1  0  0  0  0
 22 50  1  0  0  0  0
 23 24  1  0  0  0  0
 23 51  1  0  0  0  0
 23 52  1  0  0  0  0
 24 25  1  0  0  0  0
 24 53  1  0  0  0  0
 24 54  1  0  0  0  0
 25 26  1  0  0  0  0
 25 29  1  0  0  0  0
 26 27  1  0  0  0  0
 26 30  2  0  0  0  0
 27 28  1  0  0  0  0
 27 55  1  0  0  0  0
 28 29  1  0  0  0  0
 28 56  1  0  0  0  0
 28 57  1  0  0  0  0
 29 58  1  0  0  0  0
 29 59  1  0  0  0  0
M  END
>  <UNIQUE_SMILES>
Fc1ccc(N2c3c(C(C4CCN(CCN5C(=O)NCC5)CC4)C2)cccc3)cc1

>  <USER_SUPPLIED_SMILES>
Fc1ccc(N2c3c(C(C4CCN(CCN5C(=O)NCC5)CC4)C2)cccc3)cc1

$$$$
C28H31FN4O
  MOE2018           3D

 65 69  0  0  0  0  0  0  0  0999 V2000
    6.9750   -3.9350   -1.6260 F   0  0  0  0  0  0  0  0  0  0  0  0
    6.3720   -3.0160   -0.8410 C   0  0  0  0  0  0  0  0  0  0  0  0
    7.0550   -1.8730   -0.4620 C   0  0  0  0  0  0  0  0  0  0  0  0
    6.4370   -0.9330    0.3400 C   0  0  0  0  0  0  0  0  0  0  0  0
    5.1360   -1.1330    0.7640 C   0  0  0  0  0  0  0  0  0  0  0  0
    4.4630   -0.1070    1.6380 C   0  0  0  0  0  0  0  0  0  0  0  0
    3.7780    0.8780    0.7970 N   0  0  0  0  0  0  0  0  0  0  0  0
    2.4890    0.8070    0.3530 C   0  0  0  0  0  0  0  0  0  0  0  0
    1.6110   -0.2200    0.6310 N   0  0  0  0  0  0  0  0  0  0  0  0
    0.2480   -0.1830    0.0950 C   0  0  0  0  0  0  0  0  0  0  0  0
   -0.3000   -1.6090   -0.0110 C   0  0  0  0  0  0  0  0  0  0  0  0
   -1.7610   -1.5550   -0.4630 C   0  0  0  0  0  0  0  0  0  0  0  0
   -2.5600   -0.8270    0.5290 N   0  0  0  0  0  0  0  0  0  0  0  0
   -2.0940    0.5640    0.5290 C   0  0  0  0  0  0  0  0  0  0  0  0
   -0.6510    0.6260    1.0350 C   0  0  0  0  0  0  0  0  0  0  0  0
   -3.9410   -0.8090    0.0280 C   0  0  0  0  0  0  0  0  0  0  0  0
   -4.8740   -0.2870    1.1220 C   0  0  0  0  0  0  0  0  0  0  0  0
   -6.2900   -0.2690    0.6090 C   0  0  0  0  0  0  0  0  0  0  0  0
   -7.0980   -1.3790    0.7720 C   0  0  0  0  0  0  0  0  0  0  0  0
   -8.3960   -1.3650    0.3010 C   0  0  0  0  0  0  0  0  0  0  0  0
   -8.8900   -0.2360   -0.3350 C   0  0  0  0  0  0  0  0  0  0  0  0
  -10.1680   -0.2190   -0.7990 O   0  0  0  0  0  0  0  0  0  0  0  0
  -10.3750    1.0630   -1.3940 C   0  0  0  0  0  0  0  0  0  0  0  0
   -8.0780    0.8770   -0.4970 C   0  0  0  0  0  0  0  0  0  0  0  0
   -6.7820    0.8600   -0.0200 C   0  0  0  0  0  0  0  0  0  0  0  0
    2.2100    1.8590   -0.3750 N   0  0  0  0  0  0  0  0  0  0  0  0
    3.2990    2.6690   -0.4440 C   0  0  0  0  0  0  0  0  0  0  0  0
    4.3160    2.0580    0.3090 C   0  0  0  0  0  0  0  0  0  0  0  0
    5.5570    2.6660    0.4180 C   0  0  0  0  0  0  0  0  0  0  0  0
    5.7890    3.8710   -0.2130 C   0  0  0  0  0  0  0  0  0  0  0  0
    4.7890    4.4790   -0.9570 C   0  0  0  0  0  0  0  0  0  0  0  0
    3.5490    3.8900   -1.0730 C   0  0  0  0  0  0  0  0  0  0  0  0
    4.4520   -2.2730    0.3850 C   0  0  0  0  0  0  0  0  0  0  0  0
    5.0670   -3.2130   -0.4210 C   0  0  0  0  0  0  0  0  0  0  0  0
    8.0710   -1.7160   -0.7930 H   0  0  0  0  0  0  0  0  0  0  0  0
    6.9700   -0.0410    0.6360 H   0  0  0  0  0  0  0  0  0  0  0  0
    3.7370   -0.6000    2.2840 H   0  0  0  0  0  0  0  0  0  0  0  0
    5.2110    0.3960    2.2500 H   0  0  0  0  0  0  0  0  0  0  0  0
    1.8960   -0.9660    1.1810 H   0  0  0  0  0  0  0  0  0  0  0  0
    0.2560    0.2800   -0.8920 H   0  0  0  0  0  0  0  0  0  0  0  0
    0.2850   -2.1710   -0.7390 H   0  0  0  0  0  0  0  0  0  0  0  0
   -0.2370   -2.0970    0.9620 H   0  0  0  0  0  0  0  0  0  0  0  0
   -1.8250   -1.0450   -1.4240 H   0  0  0  0  0  0  0  0  0  0  0  0
   -2.1470   -2.5690   -0.5650 H   0  0  0  0  0  0  0  0  0  0  0  0
   -2.1400    0.9620   -0.4840 H   0  0  0  0  0  0  0  0  0  0  0  0
   -2.7320    1.1600    1.1810 H   0  0  0  0  0  0  0  0  0  0  0  0
   -0.5990    0.2060    2.0400 H   0  0  0  0  0  0  0  0  0  0  0  0
   -0.3170    1.6630    1.0560 H   0  0  0  0  0  0  0  0  0  0  0  0
   -4.0030   -0.1580   -0.8440 H   0  0  0  0  0  0  0  0  0  0  0  0
   -4.2390   -1.8200   -0.2520 H   0  0  0  0  0  0  0  0  0  0  0  0
   -4.8120   -0.9380    1.9940 H   0  0  0  0  0  0  0  0  0  0  0  0
   -4.5760    0.7240    1.4020 H   0  0  0  0  0  0  0  0  0  0  0  0
   -6.7130   -2.2580    1.2670 H   0  0  0  0  0  0  0  0  0  0  0  0
   -9.0270   -2.2330    0.4280 H   0  0  0  0  0  0  0  0  0  0  0  0
  -11.3910    1.1240   -1.7830 H   0  0  0  0  0  0  0  0  0  0  0  0
  -10.2250    1.8400   -0.6450 H   0  0  0  0  0  0  0  0  0  0  0  0
   -9.6650    1.2030   -2.2100 H   0  0  0  0  0  0  0  0  0  0  0  0
   -8.4600    1.7580   -0.9930 H   0  0  0  0  0  0  0  0  0  0  0  0
   -6.1490    1.7260   -0.1460 H   0  0  0  0  0  0  0  0  0  0  0  0
    6.3400    2.1980    0.9960 H   0  0  0  0  0  0  0  0  0  0  0  0
    6.7560    4.3440   -0.1270 H   0  0  0  0  0  0  0  0  0  0  0  0
    4.9830    5.4220   -1.4460 H   0  0  0  0  0  0  0  0  0  0  0  0
    2.7740    4.3690   -1.6540 H   0  0  0  0  0  0  0  0  0  0  0  0
    3.4360   -2.4280    0.7170 H   0  0  0  0  0  0  0  0  0  0  0  0
    4.5330   -4.1040   -0.7160 H   0  0  0  0  0  0  0  0  0  0  0  0
  1  2  1  0  0  0  0
  2  3  1  0  0  0  0
  2 34  2  0  0  0  0
  3  4  2  0  0  0  0
  3 35  1  0  0  0  0
  4  5  1  0  0  0  0
  4 36  1  0  0  0  0
  5  6  1  0  0  0  0
  5 33  2  0  0  0  0
  6  7  1  0  0  0  0
  6 37  1  0  0  0  0
  6 38  1  0  0  0  0
  7  8  1  0  0  0  0
  7 28  1  0  0  0  0
  8  9  1  0  0  0  0
  8 26  2  0  0  0  0
  9 10  1  0  0  0  0
  9 39  1  0  0  0  0
 10 11  1  0  0  0  0
 10 15  1  0  0  0  0
 10 40  1  0  0  0  0
 11 12  1  0  0  0  0
 11 41  1  0  0  0  0
 11 42  1  0  0  0  0
 12 13  1  0  0  0  0
 12 43  1  0  0  0  0
 12 44  1  0  0  0  0
 13 14  1  0  0  0  0
 13 16  1  0  0  0  0
 14 15  1  0  0  0  0
 14 45  1  0  0  0  0
 14 46  1  0  0  0  0
 15 47  1  0  0  0  0
 15 48  1  0  0  0  0
 16 17  1  0  0  0  0
 16 49  1  0  0  0  0
 16 50  1  0  0  0  0
 17 18  1  0  0  0  0
 17 51  1  0  0  0  0
 17 52  1  0  0  0  0
 18 19  1  0  0  0  0
 18 25  2  0  0  0  0
 19 20  2  0  0  0  0
 19 53  1  0  0  0  0
 20 21  1  0  0  0  0
 20 54  1  0  0  0  0
 21 22  1  0  0  0  0
 21 24  2  0  0  0  0
 22 23  1  0  0  0  0
 23 55  1  0  0  0  0
 23 56  1  0  0  0  0
 23 57  1  0  0  0  0
 24 25  1  0  0  0  0
 24 58  1  0  0  0  0
 25 59  1  0  0  0  0
 26 27  1  0  0  0  0
 27 28  1  0  0  0  0
 27 32  2  0  0  0  0
 28 29  2  0  0  0  0
 29 30  1  0  0  0  0
 29 60  1  0  0  0  0
 30 31  2  0  0  0  0
 30 61  1  0  0  0  0
 31 32  1  0  0  0  0
 31 62  1  0  0  0  0
 32 63  1  0  0  0  0
 33 34  1  0  0  0  0
 33 64  1  0  0  0  0
 34 65  1  0  0  0  0
M  END
>  <UNIQUE_SMILES>
Fc1ccc(Cn2c(NC3CCN(CCc4ccc(OC)cc4)CC3)nc3c2cccc3)cc1

>  <USER_SUPPLIED_SMILES>
Fc1ccc(Cn2c(NC3CCN(CCc4ccc(OC)cc4)CC3)nc3c2cccc3)cc1

$$$$
C30H35F2N3O
  MOE2018           3D

 71 74  0  0  0  0  0  0  0  0999 V2000
    6.0830    0.2920    0.8780 C   0  0  0  0  0  0  0  0  0  0  0  0
    5.7120    0.2260   -0.4520 C   0  0  0  0  0  0  0  0  0  0  0  0
    6.6790    0.1510   -1.4370 C   0  0  0  0  0  0  0  0  0  0  0  0
    8.0180    0.1410   -1.0940 C   0  0  0  0  0  0  0  0  0  0  0  0
    8.3900    0.2080    0.2380 C   0  0  0  0  0  0  0  0  0  0  0  0
    7.4210    0.2830    1.2240 C   0  0  0  0  0  0  0  0  0  0  0  0
    9.6980    0.1980    0.5750 F   0  0  0  0  0  0  0  0  0  0  0  0
    4.2530    0.2360   -0.8280 C   0  0  0  0  0  0  0  0  0  0  0  0
    3.6190   -1.0670   -0.4140 C   0  0  0  0  0  0  0  0  0  0  0  0
    3.1180   -1.9270   -1.3740 C   0  0  0  0  0  0  0  0  0  0  0  0
    2.5370   -3.1230   -0.9960 C   0  0  0  0  0  0  0  0  0  0  0  0
    2.4560   -3.4590    0.3450 C   0  0  0  0  0  0  0  0  0  0  0  0
    2.9580   -2.5970    1.3050 C   0  0  0  0  0  0  0  0  0  0  0  0
    3.5440   -1.4050    0.9240 C   0  0  0  0  0  0  0  0  0  0  0  0
    1.8880   -4.6270    0.7160 F   0  0  0  0  0  0  0  0  0  0  0  0
    3.5500    1.3930   -0.1150 C   0  0  0  0  0  0  0  0  0  0  0  0
    2.0990    1.4800   -0.5920 C   0  0  0  0  0  0  0  0  0  0  0  0
    1.3970    2.6380    0.1200 C   0  0  0  0  0  0  0  0  0  0  0  0
    0.0030    2.7210   -0.3380 N   0  0  0  0  0  0  0  0  0  0  0  0
   -0.6750    3.6770    0.5460 C   0  0  0  0  0  0  0  0  0  0  0  0
   -2.1650    3.7240    0.2060 C   0  0  0  0  0  0  0  0  0  0  0  0
   -2.7700    2.4100    0.4560 N   0  0  0  0  0  0  0  0  0  0  0  0
   -2.0920    1.4540   -0.4280 C   0  0  0  0  0  0  0  0  0  0  0  0
   -0.6020    1.4070   -0.0880 C   0  0  0  0  0  0  0  0  0  0  0  0
   -4.1630    2.4930   -0.0020 C   0  0  0  0  0  0  0  0  0  0  0  0
   -4.8230    1.1460    0.1490 C   0  0  0  0  0  0  0  0  0  0  0  0
   -6.0660    0.9470   -0.3330 N   0  0  0  0  0  0  0  0  0  0  0  0
   -6.6860   -0.2970   -0.1760 C   0  0  0  0  0  0  0  0  0  0  0  0
   -6.9640   -1.0820   -1.2880 C   0  0  0  0  0  0  0  0  0  0  0  0
   -7.5760   -2.3100   -1.1290 C   0  0  0  0  0  0  0  0  0  0  0  0
   -7.9110   -2.7580    0.1350 C   0  0  0  0  0  0  0  0  0  0  0  0
   -7.6350   -1.9800    1.2440 C   0  0  0  0  0  0  0  0  0  0  0  0
   -7.0190   -0.7530    1.0930 C   0  0  0  0  0  0  0  0  0  0  0  0
   -6.7190    0.0940    2.3020 C   0  0  0  0  0  0  0  0  0  0  0  0
   -6.5990   -0.5930   -2.6660 C   0  0  0  0  0  0  0  0  0  0  0  0
   -4.2350    0.2420    0.7030 O   0  0  0  0  0  0  0  0  0  0  0  0
    5.3270    0.3550    1.6470 H   0  0  0  0  0  0  0  0  0  0  0  0
    6.3880    0.0990   -2.4760 H   0  0  0  0  0  0  0  0  0  0  0  0
    8.7720    0.0820   -1.8640 H   0  0  0  0  0  0  0  0  0  0  0  0
    7.7110    0.3350    2.2640 H   0  0  0  0  0  0  0  0  0  0  0  0
    4.1560    0.3600   -1.9060 H   0  0  0  0  0  0  0  0  0  0  0  0
    3.1810   -1.6640   -2.4200 H   0  0  0  0  0  0  0  0  0  0  0  0
    2.1450   -3.7940   -1.7460 H   0  0  0  0  0  0  0  0  0  0  0  0
    2.8960   -2.8590    2.3510 H   0  0  0  0  0  0  0  0  0  0  0  0
    3.9360   -0.7320    1.6730 H   0  0  0  0  0  0  0  0  0  0  0  0
    3.5700    1.2230    0.9610 H   0  0  0  0  0  0  0  0  0  0  0  0
    4.0650    2.3270   -0.3450 H   0  0  0  0  0  0  0  0  0  0  0  0
    2.0800    1.6500   -1.6690 H   0  0  0  0  0  0  0  0  0  0  0  0
    1.5850    0.5470   -0.3630 H   0  0  0  0  0  0  0  0  0  0  0  0
    1.4160    2.4670    1.1970 H   0  0  0  0  0  0  0  0  0  0  0  0
    1.9110    3.5710   -0.1090 H   0  0  0  0  0  0  0  0  0  0  0  0
   -0.5490    3.3650    1.5830 H   0  0  0  0  0  0  0  0  0  0  0  0
   -0.2400    4.6670    0.4110 H   0  0  0  0  0  0  0  0  0  0  0  0
   -2.6550    4.4730    0.8280 H   0  0  0  0  0  0  0  0  0  0  0  0
   -2.2890    3.9870   -0.8440 H   0  0  0  0  0  0  0  0  0  0  0  0
   -2.5260    0.4640   -0.2930 H   0  0  0  0  0  0  0  0  0  0  0  0
   -2.2180    1.7660   -1.4650 H   0  0  0  0  0  0  0  0  0  0  0  0
   -0.1110    0.6580   -0.7100 H   0  0  0  0  0  0  0  0  0  0  0  0
   -0.4780    1.1430    0.9620 H   0  0  0  0  0  0  0  0  0  0  0  0
   -4.6990    3.2290    0.5970 H   0  0  0  0  0  0  0  0  0  0  0  0
   -4.1840    2.7930   -1.0500 H   0  0  0  0  0  0  0  0  0  0  0  0
   -6.5300    1.6660   -0.7890 H   0  0  0  0  0  0  0  0  0  0  0  0
   -7.7920   -2.9200   -1.9940 H   0  0  0  0  0  0  0  0  0  0  0  0
   -8.3900   -3.7190    0.2560 H   0  0  0  0  0  0  0  0  0  0  0  0
   -7.8990   -2.3330    2.2300 H   0  0  0  0  0  0  0  0  0  0  0  0
   -5.6860   -0.0670    2.6120 H   0  0  0  0  0  0  0  0  0  0  0  0
   -6.8630    1.1460    2.0540 H   0  0  0  0  0  0  0  0  0  0  0  0
   -7.3890   -0.1820    3.1150 H   0  0  0  0  0  0  0  0  0  0  0  0
   -5.5900   -0.9220   -2.9130 H   0  0  0  0  0  0  0  0  0  0  0  0
   -7.3020   -0.9990   -3.3930 H   0  0  0  0  0  0  0  0  0  0  0  0
   -6.6420    0.4960   -2.6880 H   0  0  0  0  0  0  0  0  0  0  0  0
  1  2  1  0  0  0  0
  1  6  2  0  0  0  0
  1 37  1  0  0  0  0
  2  3  2  0  0  0  0
  2  8  1  0  0  0  0
  3  4  1  0  0  0  0
  3 38  1  0  0  0  0
  4  5  2  0  0  0  0
  4 39  1  0  0  0  0
  5  6  1  0  0  0  0
  5  7  1  0  0  0  0
  6 40  1  0  0  0  0
  8  9  1  0  0  0  0
  8 16  1  0  0  0  0
  8 41  1  0  0  0  0
  9 10  1  0  0  0  0
  9 14  2  0  0  0  0
 10 11  2  0  0  0  0
 10 42  1  0  0  0  0
 11 12  1  0  0  0  0
 11 43  1  0  0  0  0
 12 13  2  0  0  0  0
 12 15  1  0  0  0  0
 13 14  1  0  0  0  0
 13 44  1  0  0  0  0
 14 45  1  0  0  0  0
 16 17  1  0  0  0  0
 16 46  1  0  0  0  0
 16 47  1  0  0  0  0
 17 18  1  0  0  0  0
 17 48  1  0  0  0  0
 17 49  1  0  0  0  0
 18 19  1  0  0  0  0
 18 50  1  0  0  0  0
 18 51  1  0  0  0  0
 19 20  1  0  0  0  0
 19 24  1  0  0  0  0
 20 21  1  0  0  0  0
 20 52  1  0  0  0  0
 20 53  1  0  0  0  0
 21 22  1  0  0  0  0
 21 54  1  0  0  0  0
 21 55  1  0  0  0  0
 22 23  1  0  0  0  0
 22 25  1  0  0  0  0
 23 24  1  0  0  0  0
 23 56  1  0  0  0  0
 23 57  1  0  0  0  0
 24 58  1  0  0  0  0
 24 59  1  0  0  0  0
 25 26  1  0  0  0  0
 25 60  1  0  0  0  0
 25 61  1  0  0  0  0
 26 27  1  0  0  0  0
 26 36  2  0  0  0  0
 27 28  1  0  0  0  0
 27 62  1  0  0  0  0
 28 29  1  0  0  0  0
 28 33  2  0  0  0  0
 29 30  2  0  0  0  0
 29 35  1  0  0  0  0
 30 31  1  0  0  0  0
 30 63  1  0  0  0  0
 31 32  2  0  0  0  0
 31 64  1  0  0  0  0
 32 33  1  0  0  0  0
 32 65  1  0  0  0  0
 33 34  1  0  0  0  0
 34 66  1  0  0  0  0
 34 67  1  0  0  0  0
 34 68  1  0  0  0  0
 35 69  1  0  0  0  0
 35 70  1  0  0  0  0
 35 71  1  0  0  0  0
M  END
>  <UNIQUE_SMILES>
Fc1ccc(C(CCCN2CCN(CC(=O)Nc3c(C)cccc3C)CC2)c2ccc(F)cc2)cc1

>  <USER_SUPPLIED_SMILES>
Fc1ccc(C(CCCN2CCN(CC(=O)Nc3c(C)cccc3C)CC2)c2ccc(F)cc2)cc1

$$$$
C25H24N2
  MOE2018           3D

 51 55  0  0  0  0  0  0  0  0999 V2000
   -3.7970   -0.4110    0.0430 N   0  0  0  0  0  0  0  0  0  0  0  0
   -3.4350   -1.7400    0.0730 C   0  0  0  0  0  0  0  0  0  0  0  0
   -4.1610   -2.9250    0.1100 C   0  0  0  0  0  0  0  0  0  0  0  0
   -3.4990   -4.1340    0.1330 C   0  0  0  0  0  0  0  0  0  0  0  0
   -2.1120   -4.1820    0.1210 C   0  0  0  0  0  0  0  0  0  0  0  0
   -1.3770   -3.0300    0.0850 C   0  0  0  0  0  0  0  0  0  0  0  0
   -2.0270   -1.7940    0.0600 C   0  0  0  0  0  0  0  0  0  0  0  0
   -1.5650   -0.4070    0.0220 C   0  0  0  0  0  0  0  0  0  0  0  0
   -2.6700    0.3780    0.0120 C   0  0  0  0  0  0  0  0  0  0  0  0
   -2.6660    1.8570   -0.0250 C   0  0  0  0  0  0  0  0  0  0  0  0
   -3.5250    2.5380   -0.8880 C   0  0  0  0  0  0  0  0  0  0  0  0
   -3.5160    3.9180   -0.9170 C   0  0  0  0  0  0  0  0  0  0  0  0
   -2.6570    4.6250   -0.0940 C   0  0  0  0  0  0  0  0  0  0  0  0
   -1.8030    3.9550    0.7630 C   0  0  0  0  0  0  0  0  0  0  0  0
   -1.8060    2.5760    0.8070 C   0  0  0  0  0  0  0  0  0  0  0  0
   -0.1320    0.0600   -0.0030 C   0  0  0  0  0  0  0  0  0  0  0  0
    0.5910   -0.4360    1.2530 C   0  0  0  0  0  0  0  0  0  0  0  0
    2.0700   -0.0560    1.1660 C   0  0  0  0  0  0  0  0  0  0  0  0
    2.6800   -0.7010   -0.0020 N   0  0  0  0  0  0  0  0  0  0  0  0
    2.0520   -0.1250   -1.1960 C   0  0  0  0  0  0  0  0  0  0  0  0
    0.5720   -0.5090   -1.2390 C   0  0  0  0  0  0  0  0  0  0  0  0
    4.0200   -0.3070   -0.0240 C   0  0  0  0  0  0  0  0  0  0  0  0
    4.8630   -0.7640   -1.0280 C   0  0  0  0  0  0  0  0  0  0  0  0
    6.1880   -0.3720   -1.0470 C   0  0  0  0  0  0  0  0  0  0  0  0
    6.6740    0.4740   -0.0680 C   0  0  0  0  0  0  0  0  0  0  0  0
    5.8370    0.9310    0.9340 C   0  0  0  0  0  0  0  0  0  0  0  0
    4.5100    0.5470    0.9560 C   0  0  0  0  0  0  0  0  0  0  0  0
   -5.2400   -2.8990    0.1200 H   0  0  0  0  0  0  0  0  0  0  0  0
   -4.0650   -5.0530    0.1620 H   0  0  0  0  0  0  0  0  0  0  0  0
   -1.6090   -5.1380    0.1410 H   0  0  0  0  0  0  0  0  0  0  0  0
   -0.2980   -3.0760    0.0760 H   0  0  0  0  0  0  0  0  0  0  0  0
   -4.1950    1.9880   -1.5310 H   0  0  0  0  0  0  0  0  0  0  0  0
   -4.1800    4.4470   -1.5850 H   0  0  0  0  0  0  0  0  0  0  0  0
   -2.6540    5.7040   -0.1220 H   0  0  0  0  0  0  0  0  0  0  0  0
   -1.1350    4.5120    1.4030 H   0  0  0  0  0  0  0  0  0  0  0  0
   -1.1390    2.0540    1.4770 H   0  0  0  0  0  0  0  0  0  0  0  0
   -0.1040    1.1490   -0.0340 H   0  0  0  0  0  0  0  0  0  0  0  0
    0.1470    0.0260    2.1350 H   0  0  0  0  0  0  0  0  0  0  0  0
    0.4970   -1.5200    1.3230 H   0  0  0  0  0  0  0  0  0  0  0  0
    2.1610    1.0260    1.0710 H   0  0  0  0  0  0  0  0  0  0  0  0
    2.5830   -0.3840    2.0700 H   0  0  0  0  0  0  0  0  0  0  0  0
    2.1440    0.9610   -1.1660 H   0  0  0  0  0  0  0  0  0  0  0  0
    2.5510   -0.5050   -2.0870 H   0  0  0  0  0  0  0  0  0  0  0  0
    0.4770   -1.5950   -1.2440 H   0  0  0  0  0  0  0  0  0  0  0  0
    0.1140   -0.0980   -2.1390 H   0  0  0  0  0  0  0  0  0  0  0  0
    4.4840   -1.4250   -1.7940 H   0  0  0  0  0  0  0  0  0  0  0  0
    6.8440   -0.7270   -1.8280 H   0  0  0  0  0  0  0  0  0  0  0  0
    7.7100    0.7780   -0.0840 H   0  0  0  0  0  0  0  0  0  0  0  0
    6.2200    1.5910    1.6980 H   0  0  0  0  0  0  0  0  0  0  0  0
    3.8570    0.9040    1.7380 H   0  0  0  0  0  0  0  0  0  0  0  0
   -4.7090   -0.0820    0.0400 H   0  0  0  0  0  0  0  0  0  0  0  0
  1  2  1  0  0  0  0
  1  9  1  0  0  0  0
  1 51  1  0  0  0  0
  2  3  1  0  0  0  0
  2  7  2  0  0  0  0
  3  4  2  0  0  0  0
  3 28  1  0  0  0  0
  4  5  1  0  0  0  0
  4 29  1  0  0  0  0
  5  6  2  0  0  0  0
  5 30  1  0  0  0  0
  6  7  1  0  0  0  0
  6 31  1  0  0  0  0
  7  8  1  0  0  0  0
  8  9  2  0  0  0  0
  8 16  1  0  0  0  0
  9 10  1  0  0  0  0
 10 11  1  0  0  0  0
 10 15  2  0  0  0  0
 11 12  2  0  0  0  0
 11 32  1  0  0  0  0
 12 13  1  0  0  0  0
 12 33  1  0  0  0  0
 13 14  2  0  0  0  0
 13 34  1  0  0  0  0
 14 15  1  0  0  0  0
 14 35  1  0  0  0  0
 15 36  1  0  0  0  0
 16 17  1  0  0  0  0
 16 21  1  0  0  0  0
 16 37  1  0  0  0  0
 17 18  1  0  0  0  0
 17 38  1  0  0  0  0
 17 39  1  0  0  0  0
 18 19  1  0  0  0  0
 18 40  1  0  0  0  0
 18 41  1  0  0  0  0
 19 20  1  0  0  0  0
 19 22  1  0  0  0  0
 20 21  1  0  0  0  0
 20 42  1  0  0  0  0
 20 43  1  0  0  0  0
 21 44  1  0  0  0  0
 21 45  1  0  0  0  0
 22 23  1  0  0  0  0
 22 27  2  0  0  0  0
 23 24  2  0  0  0  0
 23 46  1  0  0  0  0
 24 25  1  0  0  0  0
 24 47  1  0  0  0  0
 25 26  2  0  0  0  0
 25 48  1  0  0  0  0
 26 27  1  0  0  0  0
 26 49  1  0  0  0  0
 27 50  1  0  0  0  0
M  END
>  <UNIQUE_SMILES>
N1(c2ccccc2)CCC(c2c(-c3ccccc3)[nH]c3c2cccc3)CC1

>  <USER_SUPPLIED_SMILES>
N1(c2ccccc2)CCC(c2c(-c3ccccc3)[nH]c3c2cccc3)CC1

$$$$
C20H33NO4
  MOE2018           3D

 58 58  0  0  1  0  0  0  0  0999 V2000
   -2.1290   -2.3160    0.5630 O   0  0  0  0  0  0  0  0  0  0  0  0
   -1.7180   -1.1880    0.3900 C   0  0  0  0  0  0  0  0  0  0  0  0
   -0.3920   -0.9460    0.3900 N   0  0  0  0  0  0  0  0  0  0  0  0
    0.5530   -2.0460    0.5990 C   0  0  0  0  0  0  0  0  0  0  0  0
    1.9620   -1.5120    0.5530 C   0  0  0  0  0  0  0  0  0  0  0  0
    2.5730   -1.0740    1.7140 C   0  0  0  0  0  0  0  0  0  0  0  0
    3.8650   -0.5840    1.6760 C   0  0  0  0  0  0  0  0  0  0  0  0
    4.5500   -0.5320    0.4770 C   0  0  0  0  0  0  0  0  0  0  0  0
    5.9580    0.0020    0.4360 C   0  0  0  0  0  0  0  0  0  0  0  0
    5.9300    1.4860    0.0660 C   0  0  3  0  0  0  0  0  0  0  0  0
    5.2770    2.2230    1.1010 O   0  0  0  0  0  0  0  0  0  0  0  0
    7.3630    1.9980   -0.0980 C   0  0  0  0  0  0  0  0  0  0  0  0
    7.3360    3.3510   -0.5570 O   0  0  0  0  0  0  0  0  0  0  0  0
    3.9390   -0.9710   -0.6890 C   0  0  0  0  0  0  0  0  0  0  0  0
    4.6110   -0.9210   -1.8690 O   0  0  0  0  0  0  0  0  0  0  0  0
    3.7290   -1.4350   -2.8690 C   0  0  0  0  0  0  0  0  0  0  0  0
    2.6440   -1.4670   -0.6470 C   0  0  0  0  0  0  0  0  0  0  0  0
   -2.6900   -0.0580    0.1700 C   0  0  0  0  0  0  0  0  0  0  0  0
   -4.1200   -0.6000    0.2100 C   0  0  0  0  0  0  0  0  0  0  0  0
   -5.1070    0.5480   -0.0140 C   0  0  0  0  0  0  0  0  0  0  0  0
   -6.5380    0.0050    0.0270 C   0  0  0  0  0  0  0  0  0  0  0  0
   -7.5240    1.1530   -0.1970 C   0  0  0  0  0  0  0  0  0  0  0  0
   -8.9550    0.6100   -0.1560 C   0  0  0  0  0  0  0  0  0  0  0  0
   -9.9420    1.7580   -0.3800 C   0  0  0  0  0  0  0  0  0  0  0  0
  -11.3720    1.2160   -0.3400 C   0  0  0  0  0  0  0  0  0  0  0  0
   -0.0640   -0.0440    0.2520 H   0  0  0  0  0  0  0  0  0  0  0  0
    0.3690   -2.5030    1.5700 H   0  0  0  0  0  0  0  0  0  0  0  0
    0.4210   -2.7910   -0.1850 H   0  0  0  0  0  0  0  0  0  0  0  0
    2.0390   -1.1140    2.6520 H   0  0  0  0  0  0  0  0  0  0  0  0
    4.3390   -0.2420    2.5840 H   0  0  0  0  0  0  0  0  0  0  0  0
    6.4220   -0.1200    1.4150 H   0  0  0  0  0  0  0  0  0  0  0  0
    6.5330   -0.5480   -0.3090 H   0  0  0  0  0  0  0  0  0  0  0  0
    5.3890    1.6170   -0.8710 H   0  0  0  0  0  0  0  0  0  0  0  0
    5.7870    2.0810    1.9100 H   0  0  0  0  0  0  0  0  0  0  0  0
    7.8780    1.9500    0.8610 H   0  0  0  0  0  0  0  0  0  0  0  0
    7.8890    1.3790   -0.8250 H   0  0  0  0  0  0  0  0  0  0  0  0
    8.2560    3.6340   -0.6470 H   0  0  0  0  0  0  0  0  0  0  0  0
    4.2260   -1.4150   -3.8380 H   0  0  0  0  0  0  0  0  0  0  0  0
    3.4580   -2.4620   -2.6210 H   0  0  0  0  0  0  0  0  0  0  0  0
    2.8280   -0.8220   -2.9090 H   0  0  0  0  0  0  0  0  0  0  0  0
    2.1670   -1.8100   -1.5530 H   0  0  0  0  0  0  0  0  0  0  0  0
   -2.5620    0.6900    0.9530 H   0  0  0  0  0  0  0  0  0  0  0  0
   -2.5020    0.3990   -0.8020 H   0  0  0  0  0  0  0  0  0  0  0  0
   -4.2480   -1.3470   -0.5730 H   0  0  0  0  0  0  0  0  0  0  0  0
   -4.3080   -1.0560    1.1820 H   0  0  0  0  0  0  0  0  0  0  0  0
   -4.9800    1.2950    0.7700 H   0  0  0  0  0  0  0  0  0  0  0  0
   -4.9190    1.0040   -0.9850 H   0  0  0  0  0  0  0  0  0  0  0  0
   -6.6650   -0.7420   -0.7560 H   0  0  0  0  0  0  0  0  0  0  0  0
   -6.7260   -0.4510    0.9990 H   0  0  0  0  0  0  0  0  0  0  0  0
   -7.3970    1.9000    0.5860 H   0  0  0  0  0  0  0  0  0  0  0  0
   -7.3360    1.6090   -1.1690 H   0  0  0  0  0  0  0  0  0  0  0  0
   -9.0820   -0.1370   -0.9400 H   0  0  0  0  0  0  0  0  0  0  0  0
   -9.1430    0.1540    0.8150 H   0  0  0  0  0  0  0  0  0  0  0  0
   -9.8140    2.5050    0.4030 H   0  0  0  0  0  0  0  0  0  0  0  0
   -9.7540    2.2140   -1.3520 H   0  0  0  0  0  0  0  0  0  0  0  0
  -12.0750    2.0330   -0.4990 H   0  0  0  0  0  0  0  0  0  0  0  0
  -11.4990    0.4680   -1.1230 H   0  0  0  0  0  0  0  0  0  0  0  0
  -11.5600    0.7590    0.6320 H   0  0  0  0  0  0  0  0  0  0  0  0
  1  2  2  0  0  0  0
  2  3  1  0  0  0  0
  2 18  1  0  0  0  0
  3  4  1  0  0  0  0
  3 26  1  0  0  0  0
  4  5  1  0  0  0  0
  4 27  1  0  0  0  0
  4 28  1  0  0  0  0
  5  6  1  0  0  0  0
  5 17  2  0  0  0  0
  6  7  2  0  0  0  0
  6 29  1  0  0  0  0
  7  8  1  0  0  0  0
  7 30  1  0  0  0  0
  8  9  1  0  0  0  0
  8 14  2  0  0  0  0
  9 10  1  0  0  0  0
  9 31  1  0  0  0  0
  9 32  1  0  0  0  0
 10 11  1  0  0  0  0
 10 12  1  0  0  0  0
 10 33  1  0  0  0  0
 11 34  1  0  0  0  0
 12 13  1  0  0  0  0
 12 35  1  0  0  0  0
 12 36  1  0  0  0  0
 13 37  1  0  0  0  0
 14 15  1  0  0  0  0
 14 17  1  0  0  0  0
 15 16  1  0  0  0  0
 16 38  1  0  0  0  0
 16 39  1  0  0  0  0
 16 40  1  0  0  0  0
 17 41  1  0  0  0  0
 18 19  1  0  0  0  0
 18 42  1  0  0  0  0
 18 43  1  0  0  0  0
 19 20  1  0  0  0  0
 19 44  1  0  0  0  0
 19 45  1  0  0  0  0
 20 21  1  0  0  0  0
 20 46  1  0  0  0  0
 20 47  1  0  0  0  0
 21 22  1  0  0  0  0
 21 48  1  0  0  0  0
 21 49  1  0  0  0  0
 22 23  1  0  0  0  0
 22 50  1  0  0  0  0
 22 51  1  0  0  0  0
 23 24  1  0  0  0  0
 23 52  1  0  0  0  0
 23 53  1  0  0  0  0
 24 25  1  0  0  0  0
 24 54  1  0  0  0  0
 24 55  1  0  0  0  0
 25 56  1  0  0  0  0
 25 57  1  0  0  0  0
 25 58  1  0  0  0  0
M  END
>  <UNIQUE_SMILES>
O=C(NCc1cc(OC)c(CC(O)CO)cc1)CCCCCCCC

>  <USER_SUPPLIED_SMILES>
O=C(NCc1cc(OC)c(CC(O)CO)cc1)CCCCCCCC

$$$$
C24H27FN4S
  MOE2018           3D

 57 61  0  0  0  0  0  0  0  0999 V2000
    4.3690    1.9120   -1.0160 C   0  0  0  0  0  0  0  0  0  0  0  0
    4.5110    0.9000   -0.0760 C   0  0  0  0  0  0  0  0  0  0  0  0
    5.5910    0.9130    0.7980 C   0  0  0  0  0  0  0  0  0  0  0  0
    6.5210    1.9310    0.7300 C   0  0  0  0  0  0  0  0  0  0  0  0
    6.3780    2.9400   -0.2090 C   0  0  0  0  0  0  0  0  0  0  0  0
    5.3020    2.9290   -1.0810 C   0  0  0  0  0  0  0  0  0  0  0  0
    7.2880    3.9350   -0.2740 F   0  0  0  0  0  0  0  0  0  0  0  0
    3.5660   -0.1320   -0.0080 N   0  0  0  0  0  0  0  0  0  0  0  0
    2.2090    0.0450    0.0480 C   0  0  0  0  0  0  0  0  0  0  0  0
    1.5940   -1.1470    0.1050 C   0  0  0  0  0  0  0  0  0  0  0  0
    2.6400   -2.1720    0.0840 C   0  0  0  0  0  0  0  0  0  0  0  0
    3.8630   -1.4790    0.0060 C   0  0  0  0  0  0  0  0  0  0  0  0
    5.0520   -2.1980   -0.0320 C   0  0  0  0  0  0  0  0  0  0  0  0
    5.0220   -3.5750    0.0070 C   0  0  0  0  0  0  0  0  0  0  0  0
    3.8140   -4.2540    0.0840 C   0  0  0  0  0  0  0  0  0  0  0  0
    2.6320   -3.5670    0.1180 C   0  0  0  0  0  0  0  0  0  0  0  0
    0.1070   -1.3860    0.1780 C   0  0  0  0  0  0  0  0  0  0  0  0
   -0.4580   -0.7230    1.4380 C   0  0  0  0  0  0  0  0  0  0  0  0
   -1.9800   -0.8720    1.4450 C   0  0  0  0  0  0  0  0  0  0  0  0
   -2.5500   -0.1970    0.2750 N   0  0  0  0  0  0  0  0  0  0  0  0
   -2.0880   -0.9200   -0.9150 C   0  0  0  0  0  0  0  0  0  0  0  0
   -0.5710   -0.7740   -1.0520 C   0  0  0  0  0  0  0  0  0  0  0  0
   -4.0050   -0.3870    0.3450 C   0  0  0  0  0  0  0  0  0  0  0  0
   -4.6860    0.4970   -0.7030 C   0  0  0  0  0  0  0  0  0  0  0  0
   -6.1370    0.3070   -0.6330 N   0  0  0  0  0  0  0  0  0  0  0  0
   -6.9760    1.0170    0.1330 C   0  0  0  0  0  0  0  0  0  0  0  0
   -8.2590    0.6490    0.0170 N   0  0  0  0  0  0  0  0  0  0  0  0
   -8.3600   -0.4570   -0.9460 C   0  0  0  0  0  0  0  0  0  0  0  0
   -6.9040   -0.6880   -1.3970 C   0  0  0  0  0  0  0  0  0  0  0  0
   -6.4560    2.2800    1.1660 S   0  0  0  0  0  0  0  0  0  0  0  0
    3.5330    1.9010   -1.6990 H   0  0  0  0  0  0  0  0  0  0  0  0
    5.7030    0.1270    1.5300 H   0  0  0  0  0  0  0  0  0  0  0  0
    7.3600    1.9420    1.4090 H   0  0  0  0  0  0  0  0  0  0  0  0
    5.1920    3.7160   -1.8120 H   0  0  0  0  0  0  0  0  0  0  0  0
    1.7080    1.0020    0.0480 H   0  0  0  0  0  0  0  0  0  0  0  0
    5.9970   -1.6780   -0.0920 H   0  0  0  0  0  0  0  0  0  0  0  0
    5.9470   -4.1310   -0.0220 H   0  0  0  0  0  0  0  0  0  0  0  0
    3.8070   -5.3330    0.1140 H   0  0  0  0  0  0  0  0  0  0  0  0
    1.6960   -4.1030    0.1790 H   0  0  0  0  0  0  0  0  0  0  0  0
   -0.0890   -2.4580    0.2100 H   0  0  0  0  0  0  0  0  0  0  0  0
   -0.0400   -1.2070    2.3220 H   0  0  0  0  0  0  0  0  0  0  0  0
   -0.1950    0.3340    1.4430 H   0  0  0  0  0  0  0  0  0  0  0  0
   -2.2410   -1.9300    1.4160 H   0  0  0  0  0  0  0  0  0  0  0  0
   -2.3840   -0.4250    2.3540 H   0  0  0  0  0  0  0  0  0  0  0  0
   -2.3430   -1.9750   -0.8190 H   0  0  0  0  0  0  0  0  0  0  0  0
   -2.5730   -0.5090   -1.8000 H   0  0  0  0  0  0  0  0  0  0  0  0
   -0.3120    0.2820   -1.1230 H   0  0  0  0  0  0  0  0  0  0  0  0
   -0.2350   -1.2930   -1.9490 H   0  0  0  0  0  0  0  0  0  0  0  0
   -4.2450   -1.4320    0.1500 H   0  0  0  0  0  0  0  0  0  0  0  0
   -4.3600   -0.1120    1.3380 H   0  0  0  0  0  0  0  0  0  0  0  0
   -4.4460    1.5420   -0.5070 H   0  0  0  0  0  0  0  0  0  0  0  0
   -4.3310    0.2220   -1.6960 H   0  0  0  0  0  0  0  0  0  0  0  0
   -9.0040    1.0500    0.4930 H   0  0  0  0  0  0  0  0  0  0  0  0
   -8.7600   -1.3490   -0.4640 H   0  0  0  0  0  0  0  0  0  0  0  0
   -8.9780   -0.1700   -1.7960 H   0  0  0  0  0  0  0  0  0  0  0  0
   -6.8040   -0.5160   -2.4680 H   0  0  0  0  0  0  0  0  0  0  0  0
   -6.5780   -1.6950   -1.1370 H   0  0  0  0  0  0  0  0  0  0  0  0
  1  2  1  0  0  0  0
  1  6  2  0  0  0  0
  1 31  1  0  0  0  0
  2  3  2  0  0  0  0
  2  8  1  0  0  0  0
  3  4  1  0  0  0  0
  3 32  1  0  0  0  0
  4  5  2  0  0  0  0
  4 33  1  0  0  0  0
  5  6  1  0  0  0  0
  5  7  1  0  0  0  0
  6 34  1  0  0  0  0
  8  9  1  0  0  0  0
  8 12  1  0  0  0  0
  9 10  2  0  0  0  0
  9 35  1  0  0  0  0
 10 11  1  0  0  0  0
 10 17  1  0  0  0  0
 11 12  1  0  0  0  0
 11 16  2  0  0  0  0
 12 13  2  0  0  0  0
 13 14  1  0  0  0  0
 13 36  1  0  0  0  0
 14 15  2  0  0  0  0
 14 37  1  0  0  0  0
 15 16  1  0  0  0  0
 15 38  1  0  0  0  0
 16 39  1  0  0  0  0
 17 18  1  0  0  0  0
 17 22  1  0  0  0  0
 17 40  1  0  0  0  0
 18 19  1  0  0  0  0
 18 41  1  0  0  0  0
 18 42  1  0  0  0  0
 19 20  1  0  0  0  0
 19 43  1  0  0  0  0
 19 44  1  0  0  0  0
 20 21  1  0  0  0  0
 20 23  1  0  0  0  0
 21 22  1  0  0  0  0
 21 45  1  0  0  0  0
 21 46  1  0  0  0  0
 22 47  1  0  0  0  0
 22 48  1  0  0  0  0
 23 24  1  0  0  0  0
 23 49  1  0  0  0  0
 23 50  1  0  0  0  0
 24 25  1  0  0  0  0
 24 51  1  0  0  0  0
 24 52  1  0  0  0  0
 25 26  1  0  0  0  0
 25 29  1  0  0  0  0
 26 27  1  0  0  0  0
 26 30  2  0  0  0  0
 27 28  1  0  0  0  0
 27 53  1  0  0  0  0
 28 29  1  0  0  0  0
 28 54  1  0  0  0  0
 28 55  1  0  0  0  0
 29 56  1  0  0  0  0
 29 57  1  0  0  0  0
M  END
>  <UNIQUE_SMILES>
S=C1N(CCN2CCC(c3c4c(n(-c5ccc(F)cc5)c3)cccc4)CC2)CCN1

>  <USER_SUPPLIED_SMILES>
S=C1N(CCN2CCC(c3c4c(n(-c5ccc(F)cc5)c3)cccc4)CC2)CCN1

$$$$
C24H27FN4O
  MOE2018           3D

 57 61  0  0  0  0  0  0  0  0999 V2000
    4.1690    1.9290   -0.9280 C   0  0  0  0  0  0  0  0  0  0  0  0
    4.2920    0.8680   -0.0410 C   0  0  0  0  0  0  0  0  0  0  0  0
    5.3850    0.8020    0.8130 C   0  0  0  0  0  0  0  0  0  0  0  0
    6.3470    1.7920    0.7790 C   0  0  0  0  0  0  0  0  0  0  0  0
    6.2220    2.8500   -0.1050 C   0  0  0  0  0  0  0  0  0  0  0  0
    5.1330    2.9180   -0.9580 C   0  0  0  0  0  0  0  0  0  0  0  0
    7.1640    3.8180   -0.1370 F   0  0  0  0  0  0  0  0  0  0  0  0
    3.3140   -0.1360   -0.0090 N   0  0  0  0  0  0  0  0  0  0  0  0
    1.9650    0.0810    0.0800 C   0  0  0  0  0  0  0  0  0  0  0  0
    1.3120   -1.0920    0.0880 C   0  0  0  0  0  0  0  0  0  0  0  0
    2.3240   -2.1480   -0.0020 C   0  0  0  0  0  0  0  0  0  0  0  0
    3.5670   -1.4910   -0.0670 C   0  0  0  0  0  0  0  0  0  0  0  0
    4.7320   -2.2440   -0.1600 C   0  0  0  0  0  0  0  0  0  0  0  0
    4.6570   -3.6200   -0.1890 C   0  0  0  0  0  0  0  0  0  0  0  0
    3.4290   -4.2630   -0.1250 C   0  0  0  0  0  0  0  0  0  0  0  0
    2.2710   -3.5420   -0.0370 C   0  0  0  0  0  0  0  0  0  0  0  0
   -0.1800   -1.2860    0.1740 C   0  0  0  0  0  0  0  0  0  0  0  0
   -0.7030   -0.6700    1.4760 C   0  0  0  0  0  0  0  0  0  0  0  0
   -2.2300   -0.7700    1.5020 C   0  0  0  0  0  0  0  0  0  0  0  0
   -2.7950   -0.0200    0.3760 N   0  0  0  0  0  0  0  0  0  0  0  0
   -2.3750   -0.6960   -0.8560 C   0  0  0  0  0  0  0  0  0  0  0  0
   -0.8570   -0.5920   -1.0120 C   0  0  0  0  0  0  0  0  0  0  0  0
   -4.2550   -0.1660    0.4610 C   0  0  0  0  0  0  0  0  0  0  0  0
   -4.9220    0.7900   -0.5290 C   0  0  0  0  0  0  0  0  0  0  0  0
   -6.3770    0.6440   -0.4440 N   0  0  0  0  0  0  0  0  0  0  0  0
   -7.1810    1.3410    0.3700 C   0  0  0  0  0  0  0  0  0  0  0  0
   -8.4770    1.0210    0.2590 N   0  0  0  0  0  0  0  0  0  0  0  0
   -8.6280   -0.0320   -0.7560 C   0  0  0  0  0  0  0  0  0  0  0  0
   -7.1890   -0.2860   -1.2430 C   0  0  0  0  0  0  0  0  0  0  0  0
   -6.7710    2.1870    1.1410 O   0  0  0  0  0  0  0  0  0  0  0  0
    3.3220    1.9800   -1.5960 H   0  0  0  0  0  0  0  0  0  0  0  0
    5.4820   -0.0230    1.5030 H   0  0  0  0  0  0  0  0  0  0  0  0
    7.1970    1.7420    1.4440 H   0  0  0  0  0  0  0  0  0  0  0  0
    5.0370    3.7440   -1.6470 H   0  0  0  0  0  0  0  0  0  0  0  0
    1.4960    1.0520    0.1350 H   0  0  0  0  0  0  0  0  0  0  0  0
    5.6920   -1.7530   -0.2110 H   0  0  0  0  0  0  0  0  0  0  0  0
    5.5630   -4.2030   -0.2620 H   0  0  0  0  0  0  0  0  0  0  0  0
    3.3870   -5.3420   -0.1490 H   0  0  0  0  0  0  0  0  0  0  0  0
    1.3190   -4.0490    0.0130 H   0  0  0  0  0  0  0  0  0  0  0  0
   -0.4110   -2.3520    0.1560 H   0  0  0  0  0  0  0  0  0  0  0  0
   -0.2880   -1.2100    2.3270 H   0  0  0  0  0  0  0  0  0  0  0  0
   -0.4060    0.3770    1.5280 H   0  0  0  0  0  0  0  0  0  0  0  0
   -2.5260   -1.8170    1.4240 H   0  0  0  0  0  0  0  0  0  0  0  0
   -2.6040   -0.3570    2.4380 H   0  0  0  0  0  0  0  0  0  0  0  0
   -2.6640   -1.7470   -0.8080 H   0  0  0  0  0  0  0  0  0  0  0  0
   -2.8610   -0.2270   -1.7110 H   0  0  0  0  0  0  0  0  0  0  0  0
   -0.5640    0.4580   -1.0340 H   0  0  0  0  0  0  0  0  0  0  0  0
   -0.5520   -1.0760   -1.9390 H   0  0  0  0  0  0  0  0  0  0  0  0
   -4.5320   -1.1920    0.2190 H   0  0  0  0  0  0  0  0  0  0  0  0
   -4.5850    0.0700    1.4730 H   0  0  0  0  0  0  0  0  0  0  0  0
   -4.6450    1.8160   -0.2860 H   0  0  0  0  0  0  0  0  0  0  0  0
   -4.5920    0.5540   -1.5410 H   0  0  0  0  0  0  0  0  0  0  0  0
   -9.2000    1.4200    0.7670 H   0  0  0  0  0  0  0  0  0  0  0  0
   -9.0510   -0.9340   -0.3120 H   0  0  0  0  0  0  0  0  0  0  0  0
   -9.2510    0.3170   -1.5800 H   0  0  0  0  0  0  0  0  0  0  0  0
   -7.0990   -0.0650   -2.3060 H   0  0  0  0  0  0  0  0  0  0  0  0
   -6.8920   -1.3150   -1.0390 H   0  0  0  0  0  0  0  0  0  0  0  0
  1  2  1  0  0  0  0
  1  6  2  0  0  0  0
  1 31  1  0  0  0  0
  2  3  2  0  0  0  0
  2  8  1  0  0  0  0
  3  4  1  0  0  0  0
  3 32  1  0  0  0  0
  4  5  2  0  0  0  0
  4 33  1  0  0  0  0
  5  6  1  0  0  0  0
  5  7  1  0  0  0  0
  6 34  1  0  0  0  0
  8  9  1  0  0  0  0
  8 12  1  0  0  0  0
  9 10  2  0  0  0  0
  9 35  1  0  0  0  0
 10 11  1  0  0  0  0
 10 17  1  0  0  0  0
 11 12  1  0  0  0  0
 11 16  2  0  0  0  0
 12 13  2  0  0  0  0
 13 14  1  0  0  0  0
 13 36  1  0  0  0  0
 14 15  2  0  0  0  0
 14 37  1  0  0  0  0
 15 16  1  0  0  0  0
 15 38  1  0  0  0  0
 16 39  1  0  0  0  0
 17 18  1  0  0  0  0
 17 22  1  0  0  0  0
 17 40  1  0  0  0  0
 18 19  1  0  0  0  0
 18 41  1  0  0  0  0
 18 42  1  0  0  0  0
 19 20  1  0  0  0  0
 19 43  1  0  0  0  0
 19 44  1  0  0  0  0
 20 21  1  0  0  0  0
 20 23  1  0  0  0  0
 21 22  1  0  0  0  0
 21 45  1  0  0  0  0
 21 46  1  0  0  0  0
 22 47  1  0  0  0  0
 22 48  1  0  0  0  0
 23 24  1  0  0  0  0
 23 49  1  0  0  0  0
 23 50  1  0  0  0  0
 24 25  1  0  0  0  0
 24 51  1  0  0  0  0
 24 52  1  0  0  0  0
 25 26  1  0  0  0  0
 25 29  1  0  0  0  0
 26 27  1  0  0  0  0
 26 30  2  0  0  0  0
 27 28  1  0  0  0  0
 27 53  1  0  0  0  0
 28 29  1  0  0  0  0
 28 54  1  0  0  0  0
 28 55  1  0  0  0  0
 29 56  1  0  0  0  0
 29 57  1  0  0  0  0
M  END
>  <UNIQUE_SMILES>
Fc1ccc(-n2c3c(c(C4CCN(CCN5C(=O)NCC5)CC4)c2)cccc3)cc1

>  <USER_SUPPLIED_SMILES>
Fc1ccc(-n2c3c(c(C4CCN(CCN5C(=O)NCC5)CC4)c2)cccc3)cc1

$$$$
